@<TRIPOS>MOLECULE
*****
   23    22     1     0     0
SMALL
bcc


@<TRIPOS>ATOM
      1 O            3.9250     1.6310    -2.7440 oh         1 UNL      -0.597800
      2 C            3.8620     0.2160    -2.5890 c3         1 UNL       0.128900
      3 C1           2.4600    -0.1770    -2.1450 c3         1 UNL      -0.155400
      4 C2           2.2340    -1.6850    -2.0810 c3         1 UNL       0.127400
      5 O1           3.0860    -2.4080    -1.1980 os         1 UNL      -0.420600
      6 C3           3.0760    -2.0370     0.1760 c3         1 UNL       0.127400
      7 C4           1.7230    -2.1080     0.8810 c3         1 UNL      -0.155400
      8 C5           1.0910    -3.4920     0.8550 c3         1 UNL       0.128900
      9 O2          -0.1030    -3.4800     1.6360 oh         1 UNL      -0.597800
     10 H            3.3290     1.8710    -3.4740 ho         1 UNL       0.395000
     11 H1           4.1310    -0.2430    -3.5450 h1         1 UNL       0.052200
     12 H2           4.6100    -0.0690    -1.8440 h1         1 UNL       0.052200
     13 H3           2.2530     0.2880    -1.1750 hc         1 UNL       0.052450
     14 H4           1.7310     0.2580    -2.8410 hc         1 UNL       0.052450
     15 H5           1.1910    -1.8970    -1.8300 h1         1 UNL       0.051700
     16 H6           2.3990    -2.1060    -3.0800 h1         1 UNL       0.051700
     17 H7           3.7690    -2.7190     0.6800 h1         1 UNL       0.051700
     18 H8           3.5040    -1.0340     0.2820 h1         1 UNL       0.051700
     19 H9           1.8530    -1.7930     1.9240 hc         1 UNL       0.052450
     20 H10          1.0210    -1.3890     0.4430 hc         1 UNL       0.052450
     21 H11          0.8150    -3.7820    -0.1630 h1         1 UNL       0.052200
     22 H12          1.7600    -4.2550     1.2640 h1         1 UNL       0.052200
     23 H13          0.1590    -3.4890     2.5730 ho         1 UNL       0.395000
@<TRIPOS>BOND
     1     1     2 1   
     2     2     3 1   
     3     3     4 1   
     4     4     5 1   
     5     5     6 1   
     6     6     7 1   
     7     7     8 1   
     8     8     9 1   
     9     1    10 1   
    10     2    11 1   
    11     2    12 1   
    12     3    13 1   
    13     3    14 1   
    14     4    15 1   
    15     4    16 1   
    16     6    17 1   
    17     6    18 1   
    18     7    19 1   
    19     7    20 1   
    20     8    21 1   
    21     8    22 1   
    22     9    23 1   
@<TRIPOS>SUBSTRUCTURE
     1 UNL         1 TEMP              0 ****  ****    0 ROOT
