@<TRIPOS>MOLECULE
*****
 6 5 0 0 0
SMALL
GASTEIGER

@<TRIPOS>ATOM
      1 C           0.9662   -0.0702    0.0627 C.3     1  UNL1        0.0232
      2 C           0.4595   -1.4555   -0.3045 C.1     1  UNL1        0.0591
      3 N           0.0392   -2.6046   -0.6090 N.1     1  UNL1       -0.1969
      4 H           0.6059    0.2071    1.0571 H       1  UNL1        0.0382
      5 H           0.6059    0.6632   -0.6639 H       1  UNL1        0.0382
      6 H           2.0597   -0.0617    0.0649 H       1  UNL1        0.0382
@<TRIPOS>BOND
     1     1     2    1
     2     2     3    3
     3     1     4    1
     4     1     5    1
     5     1     6    1
