@<TRIPOS>MOLECULE
*****
    6     5     1     0     0
SMALL
bcc


@<TRIPOS>ATOM
      1 C            0.9660    -0.0700     0.0630 c3         1 UNL      -0.045000
      2 C1           0.4600    -1.4560    -0.3040 c1         1 UNL       0.208700
      3 N            0.0390    -2.6050    -0.6090 n1         1 UNL      -0.375800
      4 H            0.6060     0.2070     1.0570 hc         1 UNL       0.070700
      5 H1           0.6060     0.6630    -0.6640 hc         1 UNL       0.070700
      6 H2           2.0600    -0.0620     0.0650 hc         1 UNL       0.070700
@<TRIPOS>BOND
     1     1     2 1   
     2     2     3 3   
     3     1     4 1   
     4     1     5 1   
     5     1     6 1   
@<TRIPOS>SUBSTRUCTURE
     1 UNL         1 TEMP              0 ****  ****    0 ROOT
