@<TRIPOS>MOLECULE
MOL
    6     5     1     0     0
SMALL
bcc


@<TRIPOS>ATOM
      1 C1           1.0300    -0.0420     0.0710 c3         1 MOL       0.116700
      2 O1           0.5550    -0.3830    -1.2190 oh         1 MOL      -0.598800
      3 H1           0.6630    -0.7780     0.7900 h1         1 MOL       0.028700
      4 H2           0.6600     0.9490     0.3460 h1         1 MOL       0.028700
      5 H3           2.1230    -0.0480     0.0710 h1         1 MOL       0.028700
      6 H4           0.8960     0.2880    -1.8350 ho         1 MOL       0.396000
@<TRIPOS>BOND
     1     1     2 1   
     2     1     3 1   
     3     1     4 1   
     4     1     5 1   
     5     2     6 1   
@<TRIPOS>SUBSTRUCTURE
     1 MOL         1 TEMP              0 ****  ****    0 ROOT
