@<TRIPOS>MOLECULE
*****
   23    22     1     0     0
SMALL
bcc


@<TRIPOS>ATOM
      1 O            2.9830    -2.3140     2.3270 oh         1 UNL      -0.595800
      2 C            2.2960    -1.2190     1.7370 c3         1 UNL       0.104400
      3 C1           0.8480    -1.0810     2.2470 c3         1 UNL       0.105100
      4 C2           0.0450    -2.3450     1.9570 c3         1 UNL      -0.093100
      5 O1           0.7950    -0.8520     3.6710 os         1 UNL      -0.436600
      6 C3           1.1770     0.4790     4.0410 c3         1 UNL       0.087400
      7 C4           0.9890     0.7060     5.5470 c3         1 UNL       0.141100
      8 C5          -0.4770     0.6770     5.9800 c3         1 UNL      -0.129100
      9 O2           1.6940    -0.2960     6.2790 oh         1 UNL      -0.600800
     10 H            2.9970    -2.1440     3.2890 ho         1 UNL       0.416000
     11 H1           2.8850    -0.3150     1.9340 h1         1 UNL       0.046200
     12 H2           2.2980    -1.3700     0.6450 h1         1 UNL       0.046200
     13 H3           0.3710    -0.2440     1.7280 h1         1 UNL       0.042700
     14 H4           0.2270    -3.1200     2.7080 hc         1 UNL       0.050033
     15 H5          -1.0240    -2.1170     1.9960 hc         1 UNL       0.050033
     16 H6           0.2650    -2.7490     0.9660 hc         1 UNL       0.050033
     17 H7           2.2370     0.6140     3.8090 h1         1 UNL       0.040200
     18 H8           0.5900     1.2110     3.4730 h1         1 UNL       0.040200
     19 H9           1.4110     1.6790     5.8150 h1         1 UNL       0.075700
     20 H10         -0.9210    -0.3140     5.8420 hc         1 UNL       0.048367
     21 H11         -0.5520     0.9030     7.0500 hc         1 UNL       0.048367
     22 H12         -1.0700     1.4140     5.4310 hc         1 UNL       0.048367
     23 H13          1.3420    -1.1510     5.9650 ho         1 UNL       0.414000
@<TRIPOS>BOND
     1     1     2 1   
     2     2     3 1   
     3     3     4 1   
     4     3     5 1   
     5     5     6 1   
     6     6     7 1   
     7     7     8 1   
     8     7     9 1   
     9     1    10 1   
    10     2    11 1   
    11     2    12 1   
    12     3    13 1   
    13     4    14 1   
    14     4    15 1   
    15     4    16 1   
    16     6    17 1   
    17     6    18 1   
    18     7    19 1   
    19     8    20 1   
    20     8    21 1   
    21     8    22 1   
    22     9    23 1   
@<TRIPOS>SUBSTRUCTURE
     1 UNL         1 TEMP              0 ****  ****    0 ROOT
