data_image0
_chemical_formula_structural       C2OH6C2OH6C2OH6C2OH6C2OH6C2OH6C2OH6C2OH6C2OH6C2OH6C2OH6C2OH6C2OH6C2OH6C2OH6C2OH6C2OH6C2OH6C2OH6C2OH6C2OH6C2OH6C2OH6C2OH6C2OH6C2OH6C2OH6C2OH6C2OH6C2OH6C2OH6C2OH6C2OH6C2OH6C2OH6C2OH6C2OH6C2OH6C2OH6C2OH6C2OH6C2OH6C2OH6C2OH6C2OH6C2OH6C2OH6C2OH6C2OH6C2OH6C2OH6C2OH6C2OH6C2OH6C2OH6C2OH6C2OH6C2OH6C2OH6C2OH6C2OH6C2OH6C2OH6C2OH6C2OH6C2OH6C2OH6C2OH6C2OH6C2OH6C2OH6C2OH6C2OH6C2OH6C2OH6C2OH6C2OH6C2OH6C2OH6C2OH6C2OH6C2OH6C2OH6C2OH6C2OH6C2OH6C2OH6C2OH6C2OH6C2OH6C2OH6C2OH6C2OH6C2OH6C2OH6C2OH6C2OH6C2OH6C2OH6C2OH6C2OH6C2OH6C2OH6C2OH6C2OH6C2OH6C2OH6C2OH6C2OH6C2OH6C2OH6C2OH6C2OH6C2OH6C2OH6C2OH6C2OH6C2OH6C2OH6C2OH6C2OH6C2OH6C2OH6C2OH6C2OH6C2OH6C2OH6C2OH6
_chemical_formula_sum              "C256 O128 H768"
_cell_length_a       23.1524
_cell_length_b       23.1524
_cell_length_c       23.1524
_cell_angle_alpha    90.0
_cell_angle_beta     90.0
_cell_angle_gamma    90.0

_space_group_name_H-M_alt    "P 1"
_space_group_IT_number       1

loop_
  _space_group_symop_operation_xyz
  'x, y, z'

loop_
  _atom_site_type_symbol
  _atom_site_label
  _atom_site_symmetry_multiplicity
  _atom_site_fract_x
  _atom_site_fract_y
  _atom_site_fract_z
  _atom_site_occupancy
  C   C1        1.0  0.13130388210293534  0.7195798275772706  0.1926366165062801  1.0000
  C   C2        1.0  0.0980459909123892  0.7761614346676802  0.20084310913771358  1.0000
  O   O1        1.0  0.052262400442286756  0.7649314973825607  0.23885212764119484  1.0000
  H   H1        1.0  0.16844905927679205  0.7364247335049497  0.16412985262866914  1.0000
  H   H2        1.0  0.10495672154938579  0.6845942537274753  0.1766555519082255  1.0000
  H   H3        1.0  0.1516041533491128  0.7035987629792159  0.23194139700419825  1.0000
  H   H4        1.0  0.12741659611962472  0.8076916431989772  0.21941569772464192  1.0000
  H   H5        1.0  0.08595221229764517  0.7886871339472366  0.1559233599972357  1.0000
  H   H6        1.0  0.07169883035883969  0.7511100361085675  0.27297386016136554  1.0000
  C   C3        1.0  0.1762236312434132  0.09243102226982948  0.5442200376634819  1.0000
  C   C4        1.0  0.12050586548262815  0.06046889307372022  0.5593372609319119  1.0000
  O   O2        1.0  0.12223354814187727  0.040600542492355  0.618078471346383  1.0000
  H   H7        1.0  0.17449594858416406  0.1386465334047442  0.5614968642559734  1.0000
  H   H8        1.0  0.17924707589709918  0.0980459909123892  0.4971406851989426  1.0000
  H   H9        1.0  0.21811993573020505  0.07385843368290113  0.5614968642559734  1.0000
  H   H10       1.0  0.08033724365508542  0.08638413296245745  0.5524265302949154  1.0000
  H   H11       1.0  0.11316321418081926  0.0203002712461775  0.5364454656968608  1.0000
  H   H12       1.0  0.14253381938805482  0.07040306836440283  0.6388106632573729  1.0000
  C   C5        1.0  0.5744544842003421  0.04232822515160415  0.4643147146732088  1.0000
  C   C6        1.0  0.6327637739500008  0.0678115443755291  0.43408026813634865  1.0000
  O   O3        1.0  0.6798431264145401  0.06003697240890793  0.47554465195832823  1.0000
  H   H13       1.0  0.5779098495188404  0.9965446346815017  0.4798638586064511  1.0000
  H   H14       1.0  0.5377412276912976  0.044919749140477874  0.43364834747153636  1.0000
  H   H15       1.0  0.5649522295744718  0.06997114769959054  0.5005960505174409  1.0000
  H   H16       1.0  0.6353552979388746  0.03844093916829356  0.39563932896805515  1.0000
  H   H17       1.0  0.6318999326203762  0.11359513484563154  0.4219864895216046  1.0000
  H   H18       1.0  0.7100775729514002  0.08595221229764517  0.4591316666954613  1.0000
  C   C7        1.0  0.30579983068709937  0.16499369395829375  0.8806862355522537  1.0000
  C   C8        1.0  0.3489918971683281  0.12612083412518788  0.9122164440835507  1.0000
  O   O4        1.0  0.3615175964478844  0.15117223268430052  0.9644788445258375  1.0000
  H   H19       1.0  0.26865465351324264  0.17449594858416406  0.9091929994298646  1.0000
  H   H20       1.0  0.29197836941310623  0.1455572640417408  0.8379260897358372  1.0000
  H   H21       1.0  0.3252362606036523  0.20904960176914703  0.872047822256008  1.0000
  H   H22       1.0  0.32739586392771375  0.08336068830877144  0.9161037300668613  1.0000
  H   H23       1.0  0.38656899500699704  0.12007394481781586  0.8863012041948134  1.0000
  H   H24       1.0  0.35849415179419836  0.19436429916552928  0.95929579654809  1.0000
  C   C9        1.0  0.954976589899967  0.8133066118415369  0.71569254159396  1.0000
  C   C10       1.0  0.8858692835300012  0.8206492631433457  0.708349890292151  1.0000
  O   O5        1.0  0.8651370916190114  0.7822083239750521  0.6629982204868609  1.0000
  H   H25       1.0  0.9761407024757691  0.8167619771600352  0.6729323957775435  1.0000
  H   H26       1.0  0.9718214958276463  0.7752975933380556  0.7377204954993866  1.0000
  H   H27       1.0  0.9666384478498988  0.8543390749987042  0.7359928128401374  1.0000
  H   H28       1.0  0.8668647742782605  0.8068278018693525  0.7502461947789429  1.0000
  H   H29       1.0  0.8776627908985677  0.8642732502893867  0.70057531832553  1.0000
  H   H30       1.0  0.8521794716746428  0.8128746911767246  0.6396745045869975  1.0000
  C   C11       1.0  0.6694770304590453  0.765363418047373  0.7247628755550181  1.0000
  C   C12       1.0  0.6746600784367928  0.7001433976607176  0.7355608921753253  1.0000
  O   O6        1.0  0.6245572813185674  0.6707727924534821  0.7213075102365196  1.0000
  H   H31       1.0  0.6461533145591818  0.7701145453603081  0.6845942537274753  1.0000
  H   H32       1.0  0.7122371762754618  0.7852317686287382  0.7230351928957688  1.0000
  H   H33       1.0  0.6504725212073046  0.7804806413158031  0.762339973393687  1.0000
  H   H34       1.0  0.7122371762754618  0.6863219363867245  0.7118052556106494  1.0000
  H   H35       1.0  0.6876176983811614  0.6910730636996596  0.7796167999861785  1.0000
  H   H36       1.0  0.6267168846426289  0.6318999326203762  0.7381524161641989  1.0000
  C   C13       1.0  0.993849449733073  0.5386050690209222  0.12093778614744044  1.0000
  C   C14       1.0  0.9415870492907862  0.4971406851989426  0.13605500941587048  1.0000
  O   O7        1.0  0.9554085105647794  0.46474663533802113  0.18529396520447122  1.0000
  H   H37       1.0  0.9830514331127657  0.5649522295744718  0.08336068830877144  1.0000
  H   H38       1.0  0.032290388901366596  0.5100983051433112  0.11273129351600698  1.0000
  H   H39       1.0  0.0003282597052571834  0.565384150239284  0.15765104265648483  1.0000
  H   H40       1.0  0.906601475440991  0.5260793697413658  0.1494445500250514  1.0000
  H   H41       1.0  0.9307890326704789  0.4694977626509562  0.09977367357163835  1.0000
  H   H42       1.0  0.9307890326704789  0.47381696929907907  0.2198476183894542  1.0000
  C   C15       1.0  0.7511100361085675  0.43278450614191183  0.1585148839861094  1.0000
  C   C16       1.0  0.71569254159396  0.4427186814325944  0.21120920509320845  1.0000
  O   O8        1.0  0.6962561116774071  0.5031875745063147  0.2172560944005805  1.0000
  H   H43       1.0  0.764067656052936  0.3874328363366217  0.15635528066204799  1.0000
  H   H44       1.0  0.7925744199305471  0.4539486187177139  0.159378725315734  1.0000
  H   H45       1.0  0.7303778441975778  0.4427186814325944  0.11661857949931756  1.0000
  H   H46       1.0  0.6798431264145401  0.412052314230922  0.21466457041170675  1.0000
  H   H47       1.0  0.7433354641419464  0.43278450614191183  0.249650144261502  1.0000
  H   H48       1.0  0.6742281577719804  0.5144175117914341  0.1831343618804098  1.0000
  C   C17       1.0  0.954976589899967  0.9057376341113663  0.9001226654688066  1.0000
  C   C18       1.0  0.9679342098443358  0.8426772170487725  0.8875969661892503  1.0000
  O   O9        1.0  0.009398593666315236  0.8418133757191479  0.843541058378397  1.0000
  H   H49       1.0  0.9303571120056667  0.9104887614243016  0.9368359219778511  1.0000
  H   H50       1.0  0.9303571120056667  0.9269017466871685  0.8638413296245745  1.0000
  H   H51       1.0  0.9955771323923222  0.9320847946649158  0.906601475440991  1.0000
  H   H52       1.0  0.9873706397608886  0.8219450251377827  0.9256059846927316  1.0000
  H   H53       1.0  0.9281975086816053  0.8215131044729703  0.8755031875745064  1.0000
  H   H54       1.0  0.03660959554948939  0.8724797429208202  0.8547709956635164  1.0000
  C   C19       1.0  0.37101985107375474  0.09545446692351547  0.6534959658609906  1.0000
  C   C20       1.0  0.3870009156718094  0.04967087645341304  0.6984157150014686  1.0000
  O   O10       1.0  0.41162039356610974  0.0017276826592491491  0.6733643164423558  1.0000
  H   H55       1.0  0.34812805583870354  0.13432732675662132  0.6733643164423558  1.0000
  H   H56       1.0  0.33992156320727007  0.07688187833658712  0.6193742333408199  1.0000
  H   H57       1.0  0.409028869577236  0.11186745218638239  0.6301722499611271  1.0000
  H   H58       1.0  0.4224184101864169  0.06565194105146767  0.7299459235327654  1.0000
  H   H59       1.0  0.34769613517389125  0.034553653184982984  0.7208755895717075  1.0000
  H   H60       1.0  0.3805221056996251  0.9844508560667576  0.6504725212073046  1.0000
  C   C21       1.0  0.4586997460306491  0.7498142741141306  0.1485807086954268  1.0000
  C   C22       1.0  0.45654014270658766  0.8115789291822877  0.1252569927955633  1.0000
  O   O11       1.0  0.5105302258081236  0.8366303277414004  0.12093778614744044  1.0000
  H   H61       1.0  0.4889341925675091  0.7251947962198303  0.12266546880668958  1.0000
  H   H62       1.0  0.415075758884608  0.7286501615383286  0.15289991534354969  1.0000
  H   H63       1.0  0.47684041395276516  0.7528377187678167  0.19436429916552928  1.0000
  H   H64       1.0  0.4375356334548469  0.8137385325063492  0.08163300564952229  1.0000
  H   H65       1.0  0.43148874414747496  0.840517613724711  0.15074031201948823  1.0000
  H   H66       1.0  0.5161451944506833  0.8444048997080216  0.08120108498471  1.0000
  C   C23       1.0  0.7800487206509908  0.41982688619754316  0.7614761320640624  1.0000
  C   C24       1.0  0.8046681985452911  0.4431506020974067  0.708349890292151  1.0000
  O   O12       1.0  0.8379260897358372  0.4941172405452566  0.726058637549455  1.0000
  H   H67       1.0  0.8085554845286018  0.38656899500699704  0.7778891173269292  1.0000
  H   H68       1.0  0.7381524161641989  0.4051415835939254  0.7506781154437552  1.0000
  H   H69       1.0  0.7670911007066222  0.45265285672327704  0.7943021025897963  1.0000
  H   H70       1.0  0.830151517769216  0.4098927109068606  0.687185777716349  1.0000
  H   H71       1.0  0.771410307354745  0.45610822204177537  0.6755239197664172  1.0000
  H   H72       1.0  0.8634094089597623  0.5079387018192498  0.6936645876885335  1.0000
  C   C25       1.0  0.5882759454743353  0.29975294137972736  0.6932326670237211  1.0000
  C   C26       1.0  0.6327637739500008  0.3464003731794544  0.7122371762754618  1.0000
  O   O13       1.0  0.6725004751127313  0.3550387864757001  0.6634301411516732  1.0000
  H   H73       1.0  0.5835248181614001  0.2975933380556659  0.6474490765536187  1.0000
  H   H74       1.0  0.5476754029819803  0.3036402273630379  0.7139648589347108  1.0000
  H   H75       1.0  0.6068485340612636  0.2569927955633109  0.7014391596551546  1.0000
  H   H76       1.0  0.6128954233686357  0.38872859833105855  0.7256267168846426  1.0000
  H   H77       1.0  0.6586790138387381  0.3312831499110243  0.7489504327845061  1.0000
  H   H78       1.0  0.6694770304590453  0.3965031702976797  0.6534959658609906  1.0000
  C   C27       1.0  0.9463381766037212  0.8733435842504448  0.26735889151880576  1.0000
  C   C28       1.0  0.9420189699555986  0.8526113923394549  0.3325789119054612  1.0000
  O   O14       1.0  0.9869387190960764  0.8755031875745064  0.3688602477496933  1.0000
  H   H79       1.0  0.9843471951072026  0.8543390749987042  0.24878630293187745  1.0000
  H   H80       1.0  0.9515212245814687  0.921718698709421  0.26735889151880576  1.0000
  H   H81       1.0  0.911352602753926  0.8603859643060763  0.240579810300444  1.0000
  H   H82       1.0  0.9009865067984312  0.8685924569375096  0.3455365318498298  1.0000
  H   H83       1.0  0.942882811285223  0.8042362778804789  0.33387467389989806  1.0000
  H   H84       1.0  0.9821875917831413  0.9191271747205473  0.37101985107375474  1.0000
  C   C29       1.0  0.7152606209291477  0.22546258703201397  0.5221920837580553  1.0000
  C   C30       1.0  0.6642939824812978  0.2682227328484304  0.5338539417079871  1.0000
  O   O15       1.0  0.6845942537274753  0.32264473661477855  0.515713273785871  1.0000
  H   H85       1.0  0.754565401427066  0.2410117309652563  0.5455157996579187  1.0000
  H   H86       1.0  0.7217394309013321  0.21596033240614362  0.4777042552823897  1.0000
  H   H87       1.0  0.7048945249736528  0.18443012387484664  0.5403327516801713  1.0000
  H   H88       1.0  0.6258530433130042  0.26001624021699693  0.5088025431488743  1.0000
  H   H89       1.0  0.6483129178832431  0.26735889151880576  0.5792056115132772  1.0000
  H   H90       1.0  0.6945284290181579  0.33992156320727007  0.5550180542837891  1.0000
  C   C31       1.0  0.15117223268430052  0.577477928854028  0.1520360740139251  1.0000
  C   C32       1.0  0.21509649107651907  0.6012335654187038  0.14382958138249166  1.0000
  O   O16       1.0  0.25137782692075117  0.5602011022615365  0.16456177329348146  1.0000
  H   H91       1.0  0.11921010348819129  0.6046889307372021  0.13000812010849847  1.0000
  H   H92       1.0  0.14642110537136538  0.5701352775522193  0.1995473471432767  1.0000
  H   H93       1.0  0.14382958138249166  0.5364454656968608  0.13000812010849847  1.0000
  H   H94       1.0  0.22546258703201397  0.6081442960557004  0.09761407024757693  1.0000
  H   H95       1.0  0.22157530104870335  0.6418341079110588  0.16456177329348146  1.0000
  H   H96       1.0  0.28549955944092187  0.5800694528429018  0.18183859988597292  1.0000
  C   C33       1.0  0.5018918125118778  0.7407439401530728  0.681138888408977  1.0000
  C   C34       1.0  0.4815915412657003  0.6768196817608542  0.6686131891294207  1.0000
  O   O17       1.0  0.45092517406402793  0.6703408717886697  0.615055026692697  1.0000
  H   H97       1.0  0.5390369896857345  0.747222750125257  0.6547917278554275  1.0000
  H   H98       1.0  0.5139855911266218  0.747222750125257  0.727786320208704  1.0000
  H   H99       1.0  0.4660423973324579  0.7718422280195572  0.6742281577719804  1.0000
  H   H100      1.0  0.5208963217636183  0.64960867987768  0.6668855064701715  1.0000
  H   H101      1.0  0.4539486187177139  0.661702458492424  0.7048945249736528  1.0000
  H   H102      1.0  0.44703788808071726  0.6280126466370656  0.6081442960557004  1.0000
  C   C35       1.0  0.3857051536773725  0.6366510599333114  0.0747222750125257  1.0000
  C   C36       1.0  0.3965031702976797  0.6604066964979871  0.012525699279556332  1.0000
  O   O18       1.0  0.44919749140477877  0.6461533145591818  0.9904977453741297  1.0000
  H   H103      1.0  0.42328225151604154  0.6439937112351203  0.10322903889013664  1.0000
  H   H104      1.0  0.37793058171075133  0.5895717074687721  0.07644995767177484  1.0000
  H   H105      1.0  0.350287659162765  0.6591109345035503  0.09588638758832778  1.0000
  H   H106      1.0  0.36410912043675814  0.646585235223994  0.9818593320778839  1.0000
  H   H107      1.0  0.3930478049791814  0.7074860489625264  0.009502254625870319  1.0000
  H   H108      1.0  0.4729531279694545  0.6362191392684992  0.0237556365646758  1.0000
  C   C37       1.0  0.0950225462587032  0.8750712669096938  0.6655897444757346  1.0000
  C   C38       1.0  0.16369793196385687  0.8828458388763152  0.6573832518443012  1.0000
  O   O19       1.0  0.17060866260085347  0.9316528740001037  0.6176465506815707  1.0000
  H   H109      1.0  0.08854373628651888  0.8409495343895232  0.6949603496829702  1.0000
  H   H110      1.0  0.07904148166064857  0.8629774882949499  0.622397677994506  1.0000
  H   H111      1.0  0.06867538570515368  0.9143760474076121  0.6785473644201032  1.0000
  H   H112      1.0  0.18054283789153605  0.8910523315077487  0.6979837943366562  1.0000
  H   H113      1.0  0.18270244121559748  0.8422452963839602  0.6370829805981237  1.0000
  H   H114      1.0  0.13778269207511962  0.9554085105647794  0.6293084086315025  1.0000
  C   C39       1.0  0.07688187833658712  0.9053057134465541  0.07731379900139942  1.0000
  C   C40       1.0  0.056149686425597346  0.8521794716746428  0.046647431799727024  1.0000
  O   O20       1.0  0.10366095955494893  0.8102831671878508  0.03887285983310585  1.0000
  H   H115      1.0  0.10711632487344723  0.896235379485496  0.11186745218638239  1.0000
  H   H116      1.0  0.03844093916829356  0.927765588016793  0.0984779115772015  1.0000
  H   H117      1.0  0.09199910160501718  0.9359720806482263  0.043192066481228725  1.0000
  H   H118      1.0  0.024619477894300374  0.8297195971044038  0.07644995767177484  1.0000
  H   H119      1.0  0.03671325650904442  0.8655690122838237  0.003887285983310585  1.0000
  H   H120      1.0  0.13951037473436878  0.831447279763653  0.032394049860921544  1.0000
  C   C41       1.0  0.5351497037024239  0.8828458388763152  0.8158981358304106  1.0000
  C   C42       1.0  0.5036194951711269  0.9100568407594892  0.7649314973825607  1.0000
  O   O21       1.0  0.5131217497969972  0.9700938131683972  0.7627718940584993  1.0000
  H   H121      1.0  0.577477928854028  0.9001226654688066  0.8275599937803424  1.0000
  H   H122      1.0  0.5390369896857345  0.837494169071025  0.8038043572156666  1.0000
  H   H123      1.0  0.511394067137748  0.8841416008707521  0.8539071543338919  1.0000
  H   H124      1.0  0.5265112904061782  0.888892728183687  0.727786320208704  1.0000
  H   H125      1.0  0.45654014270658766  0.8988269034743697  0.7632038147233114  1.0000
  H   H126      1.0  0.49325339921563194  0.9800279884590798  0.726058637549455  1.0000
  C   C43       1.0  0.5697033568874068  0.4396952367789084  0.5852525008206493  1.0000
  C   C44       1.0  0.6068485340612636  0.49282147855081976  0.593890914116895  1.0000
  O   O22       1.0  0.6634301411516732  0.4729531279694545  0.6055527720668267  1.0000
  H   H127      1.0  0.5243516870821168  0.4552443807121508  0.5822290561669632  1.0000
  H   H128      1.0  0.5701352775522193  0.41162039356610974  0.6228295986593182  1.0000
  H   H129      1.0  0.5766140875244035  0.415075758884608  0.5459477203227311  1.0000
  H   H130      1.0  0.6133273440334479  0.5144175117914341  0.5506988476356662  1.0000
  H   H131      1.0  0.5891397868039598  0.5239197664173044  0.6267168846426289  1.0000
  H   H132      1.0  0.6932326670237211  0.4954130025396935  0.5852525008206493  1.0000
  C   C45       1.0  0.127848516784437  0.8858692835300012  0.34121732520170694  1.0000
  C   C46       1.0  0.1766555519082255  0.9083291581002402  0.2988891000501028  1.0000
  O   O23       1.0  0.22459874570238939  0.8685924569375096  0.2980252587204782  1.0000
  H   H133      1.0  0.08897565695133118  0.9126483647483629  0.3425130871961438  1.0000
  H   H134      1.0  0.14339766071767937  0.8815500768818783  0.3870009156718094  1.0000
  H   H135      1.0  0.11445897617525613  0.843541058378397  0.3252362606036523  1.0000
  H   H136      1.0  0.15376375667317424  0.9087610787650523  0.2574247162281232  1.0000
  H   H137      1.0  0.19393237850071698  0.9502254625870319  0.3122786406592837  1.0000
  H   H138      1.0  0.20559423645064873  0.8288557557747793  0.3001848620445396  1.0000
  C   C47       1.0  0.5407646723449836  0.9822912527426962  0.22632642836163852  1.0000
  C   C48       1.0  0.5709991188818437  0.003023444653686011  0.2816122734576113  1.0000
  O   O24       1.0  0.5697033568874068  0.06522002038665538  0.2893868454242325  1.0000
  H   H139      1.0  0.5031875745063147  0.008206492631433459  0.21077728442839616  1.0000
  H   H140      1.0  0.5312624177191133  0.9334842176189078  0.2267583490264508  1.0000
  H   H141      1.0  0.5701352775522193  0.9874743007204436  0.1900450925174064  1.0000
  H   H142      1.0  0.5442200376634819  0.9796997287538225  0.31530208531296966  1.0000
  H   H143      1.0  0.6176465506815707  0.990929666038942  0.28593148010573416  1.0000
  H   H144      1.0  0.5407646723449836  0.07817764033102399  0.2643354468651198  1.0000
  C   C49       1.0  0.8625455676301378  0.5368773863616731  0.3032083066982256  1.0000
  C   C50       1.0  0.8772308702337555  0.47554465195832823  0.32696394326290146  1.0000
  O   O25       1.0  0.8655690122838237  0.43105682348266267  0.2829080354520482  1.0000
  H   H145      1.0  0.8171938978248474  0.541196593009796  0.29370605207235534  1.0000
  H   H146      1.0  0.890188490178124  0.5450838789931065  0.26606312952436895  1.0000
  H   H147      1.0  0.8733435842504448  0.5701352775522193  0.33344275323508576  1.0000
  H   H148      1.0  0.9243102226982948  0.47900001727682656  0.33992156320727007  1.0000
  H   H149      1.0  0.8517475510098304  0.46863392132133164  0.36583680309600725  1.0000
  H   H150      1.0  0.8392218517302741  0.40082237694580264  0.2975933380556659  1.0000
  C   C51       1.0  0.6837304123978507  0.2889549247594202  0.8746393462448817  1.0000
  C   C52       1.0  0.7480865914548815  0.2708142568373041  0.8776627908985677  1.0000
  O   O26       1.0  0.772706069349182  0.28549955944092187  0.8215131044729703  1.0000
  H   H151      1.0  0.6828665710682261  0.3360342772239595  0.8742074255800695  1.0000
  H   H152      1.0  0.6534959658609906  0.2695184948428673  0.9053057134465541  1.0000
  H   H153      1.0  0.6625662998220486  0.27902074946873756  0.8336068830877145  1.0000
  H   H154      1.0  0.7649314973825607  0.29284221074273076  0.9143760474076121  1.0000
  H   H155      1.0  0.7511100361085675  0.22503066636720165  0.8845735215355643  1.0000
  H   H156      1.0  0.7627718940584993  0.25440127157443715  0.793870181924984  1.0000
  C   C53       1.0  0.4142119175549835  0.3360342772239595  0.4669062386620825  1.0000
  C   C54       1.0  0.4323525854770994  0.37749866104593904  0.41809920353829405  1.0000
  O   O27       1.0  0.43019298215303814  0.34855997650351583  0.3628133584423213  1.0000
  H   H157      1.0  0.3688602477496933  0.3256681812684646  0.4599955080250859  1.0000
  H   H158      1.0  0.41680344154385723  0.3541749451460755  0.511394067137748  1.0000
  H   H159      1.0  0.44012715744372066  0.2971614173908536  0.4625870320139596  1.0000
  H   H160      1.0  0.40168621827542716  0.4133480762253589  0.4228503308512292  1.0000
  H   H161      1.0  0.4759765726231406  0.3965031702976797  0.4224184101864169  1.0000
  H   H162      1.0  0.41809920353829405  0.3101190373352222  0.37274753373300384  1.0000
  C   C55       1.0  0.19911542647846445  0.08767989495689432  0.9942813703978852  1.0000
  C   C56       1.0  0.1520360740139251  0.047079352464539315  0.018037006962561053  1.0000
  O   O28       1.0  0.11705050016412984  0.029370605207235535  0.9722534164924586  1.0000
  H   H163      1.0  0.21941569772464192  0.0639242583922185  0.95929579654809  1.0000
  H   H164      1.0  0.23064563500976137  0.09588638758832778  0.027971182253243576  1.0000
  H   H165      1.0  0.18443012387484664  0.1321677234325599  0.981755671118329  1.0000
  H   H166      1.0  0.17579171057860088  0.008638413296245746  0.03920111953836325  1.0000
  H   H167      1.0  0.1282804374492493  0.06997114769959054  0.050862977488294714  1.0000
  H   H168      1.0  0.11057169019194554  0.06694770304590453  0.9510893039166565  1.0000
  C   C57       1.0  0.3615175964478844  0.6742281577719804  0.45481246004733844  1.0000
  C   C58       1.0  0.3649729617663827  0.7394481781586358  0.4621551113491474  1.0000
  O   O29       1.0  0.38656899500699704  0.7554292427566904  0.5170090357803079  1.0000
  H   H169      1.0  0.3429450078609561  0.6522002038665538  0.49152571655638283  1.0000
  H   H170      1.0  0.4047096629291132  0.6513363625369292  0.4461740467510927  1.0000
  H   H171      1.0  0.3304193085813998  0.6604066964979871  0.4211226481919801  1.0000
  H   H172      1.0  0.39347972564399364  0.7593165287400009  0.4271695374993521  1.0000
  H   H173      1.0  0.318757450631468  0.7554292427566904  0.45956358736027364  1.0000
  H   H174      1.0  0.41032463157167287  0.7234671135605811  0.5312624177191133  1.0000
  C   C59       1.0  0.16240216996942  0.12914427877887388  0.3610856757830721  1.0000
  C   C60       1.0  0.17881515523228692  0.06737962371071682  0.35115150049238947  1.0000
  O   O30       1.0  0.1559233599972357  0.02634716055354952  0.3870009156718094  1.0000
  H   H175      1.0  0.18097475855634834  0.1490126293602391  0.40211813894023946  1.0000
  H   H176      1.0  0.11661857949931756  0.1351911680862459  0.35806223112938607  1.0000
  H   H177      1.0  0.1766555519082255  0.15635528066204799  0.3291235465869629  1.0000
  H   H178      1.0  0.16672137661754288  0.06133273440334479  0.3045040686926625  1.0000
  H   H179      1.0  0.2267583490264508  0.06176465506815707  0.350287659162765  1.0000
  H   H180      1.0  0.1900450925174064  0.0017276826592491491  0.3995266149513657  1.0000
  C   C61       1.0  0.18961317185259408  0.21164112575802077  0.7273543995438917  1.0000
  C   C62       1.0  0.1559233599972357  0.16369793196385687  0.7575888460807518  1.0000
  O   O31       1.0  0.16240216996942  0.11705050016412984  0.7204436689068952  1.0000
  H   H181      1.0  0.19220469584146782  0.2531055095800003  0.7562930840863149  1.0000
  H   H182      1.0  0.16672137661754288  0.2241668250375771  0.688481539710786  1.0000
  H   H183      1.0  0.23150947633938598  0.1965239024895907  0.718715986247646  1.0000
  H   H184      1.0  0.17492786924897635  0.1554914393324234  0.7981893885731068  1.0000
  H   H185      1.0  0.11143553152157011  0.17579171057860088  0.7562930840863149  1.0000
  H   H186      1.0  0.1421018987232425  0.08422452963839602  0.7372885748345743  1.0000
  C   C63       1.0  0.5152813531210587  0.24835438226706516  0.20170695046733814  1.0000
  C   C64       1.0  0.5731587222059051  0.2176880150653928  0.19522814049515386  1.0000
  O   O32       1.0  0.622397677994506  0.249650144261502  0.21120920509320845  1.0000
  H   H187      1.0  0.48245538259532483  0.21596033240614362  0.1857258858692835  1.0000
  H   H188      1.0  0.5109621464729358  0.28722724210017103  0.17492786924897635  1.0000
  H   H189      1.0  0.5014598918470655  0.26692697085399353  0.24403517561894228  1.0000
  H   H190      1.0  0.5722948808762806  0.17708747257303775  0.22027953905426648  1.0000
  H   H191      1.0  0.5740225635355297  0.20041118847290132  0.1520360740139251  1.0000
  H   H192      1.0  0.6215338366648814  0.2561289542336863  0.25440127157443715  1.0000
  C   C65       1.0  0.9407232079611617  0.6979837943366562  0.16024256664535858  1.0000
  C   C66       1.0  0.9502254625870319  0.666021665140547  0.21509649107651907  1.0000
  O   O33       1.0  0.9571361932240287  0.7057583663032774  0.2621758435410584  1.0000
  H   H193      1.0  0.9230144607038578  0.6694770304590453  0.1252569927955633  1.0000
  H   H194      1.0  0.9821875917831413  0.7174202242532091  0.14814878803061454  1.0000
  H   H195      1.0  0.9083291581002402  0.7346970508457007  0.1662894559527306  1.0000
  H   H196      1.0  0.9156718094020491  0.6379468219277483  0.22459874570238939  1.0000
  H   H197      1.0  0.9886664017553255  0.6366510599333114  0.21682417373576818  1.0000
  H   H198      1.0  0.9921217670738239  0.7273543995438917  0.2505139855911266  1.0000
  C   C67       1.0  0.6405383459166221  0.7506781154437552  0.13087196143812302  1.0000
  C   C68       1.0  0.6979837943366562  0.771410307354745  0.1088440075326964  1.0000
  O   O34       1.0  0.7433354641419464  0.7670911007066222  0.15419567733798653  1.0000
  H   H199      1.0  0.6383787425925606  0.7048945249736528  0.1421018987232425  1.0000
  H   H200      1.0  0.6107358200445742  0.753269639432629  0.0915671809402049  1.0000
  H   H201      1.0  0.6245572813185674  0.7804806413158031  0.1658575352879183  1.0000
  H   H202      1.0  0.7087818109569634  0.744199305471571  0.07256267168846427  1.0000
  H   H203      1.0  0.6984157150014686  0.8150342945007861  0.09027141894576803  1.0000
  H   H204      1.0  0.7329693681864514  0.7346970508457007  0.17751939323785004  1.0000
  C   C69       1.0  0.899258824139182  0.6820027297386015  0.8141704531711615  1.0000
  C   C70       1.0  0.8465645030320831  0.6513363625369292  0.7860956099583628  1.0000
  O   O35       1.0  0.8387899310654617  0.5921632314576458  0.8076916431989772  1.0000
  H   H205      1.0  0.9389955253019124  0.6642939824812978  0.7968936265786699  1.0000
  H   H206      1.0  0.9022822687928681  0.6863219363867245  0.8638413296245745  1.0000
  H   H207      1.0  0.8975311414799328  0.726058637549455  0.7964617059138578  1.0000
  H   H208      1.0  0.8094193258582264  0.6772516024256664  0.7986213092379191  1.0000
  H   H209      1.0  0.8465645030320831  0.6543598071906152  0.7372885748345743  1.0000
  H   H210      1.0  0.8262642317859055  0.5640883882448472  0.7791848793213662  1.0000
  C   C71       1.0  0.23410100032825967  0.9692299718387727  0.14685302603617767  1.0000
  C   C72       1.0  0.2639035262003075  0.9951452117275098  0.2034346331265873  1.0000
  O   O36       1.0  0.30104870337416423  0.9541127485703426  0.22891795235051227  1.0000
  H   H211      1.0  0.269086574178055  0.9536808279055303  0.11834626215856671  1.0000
  H   H212      1.0  0.20516231578583644  0.0003282597052571834  0.1287123581140616  1.0000
  H   H213      1.0  0.20645807778027328  0.9320847946649158  0.16024256664535858  1.0000
  H   H214      1.0  0.28333995611686047  0.03833727820873856  0.19781966448402757  1.0000
  H   H215      1.0  0.22934987301532456  0.9977367357163835  0.23496484165788428  1.0000
  H   H216      1.0  0.2768611461446761  0.9264698260223562  0.25224166825037575  1.0000
  C   C73       1.0  0.5023237331766901  0.981755671118329  0.041360722862424426  1.0000
  C   C74       1.0  0.5351497037024239  0.005511307683004674  0.9878025604257008  1.0000
  O   O37       1.0  0.5718629602114683  0.9627511618665883  0.9618873205369637  1.0000
  H   H217      1.0  0.46992968331576856  0.014149720979250269  0.059069470119728296  1.0000
  H   H218      1.0  0.5347177830376115  0.9787322264646429  0.07634629671221993  1.0000
  H   H219      1.0  0.47554465195832823  0.944610493944472  0.03617767488467716  1.0000
  H   H220      1.0  0.5018918125118778  0.018037006962561053  0.9571361932240287  1.0000
  H   H221      1.0  0.5589053402670997  0.04395224685129828  0.9960090530571345  1.0000
  H   H222      1.0  0.5999378034242671  0.9843471951072026  0.9376997633074755  1.0000
  C   C75       1.0  0.2950018140667922  0.4379675541196593  0.8569305989875778  1.0000
  C   C76       1.0  0.3261001019332769  0.47208928663982996  0.903578030787305  1.0000
  O   O38       1.0  0.3861370743421848  0.47036160398058086  0.8854373628651888  1.0000
  H   H223      1.0  0.24835438226706516  0.43364834747153636  0.8707520602615711  1.0000
  H   H224      1.0  0.31573400597778195  0.3930478049791814  0.8517475510098304  1.0000
  H   H225      1.0  0.29932102071491506  0.46647431799727024  0.8141704531711615  1.0000
  H   H226      1.0  0.31271056132409597  0.5152813531210587  0.9061695547761786  1.0000
  H   H227      1.0  0.31573400597778195  0.455676301376963  0.9493616212574074  1.0000
  H   H228      1.0  0.399958535616178  0.5070748604896251  0.8966673001503084  1.0000
  C   C77       1.0  0.744199305471571  0.013821461273993193  0.9018503481280559  1.0000
  C   C78       1.0  0.7234671135605811  0.07688187833658712  0.8970992208151206  1.0000
  O   O39       1.0  0.7489504327845061  0.11618665883450528  0.9372678426426633  1.0000
  H   H229      1.0  0.7178521449180213  0.9900658247093174  0.932516715329728  1.0000
  H   H230      1.0  0.7891190546120488  0.01425338193880548  0.9152398887372367  1.0000
  H   H231      1.0  0.7355608921753253  0.9982723173407508  0.8599540436412639  1.0000
  H   H232      1.0  0.7308097648623899  0.0950225462587032  0.8521794716746428  1.0000
  H   H233      1.0  0.6763877610960418  0.07644995767177484  0.9070333961058032  1.0000
  H   H234      1.0  0.7899828959416734  0.12223354814187727  0.924742143363107  1.0000
  C   C79       1.0  0.8262642317859055  0.5995058827594547  0.051830479777474465  1.0000
  C   C80       1.0  0.8780947115633799  0.5990739620946425  0.008206492631433459  1.0000
  O   O40       1.0  0.8543390749987042  0.6297403292963148  0.9598313781724573  1.0000
  H   H235      1.0  0.7865275306231752  0.5805013735077141  0.03325789119054612  1.0000
  H   H236      1.0  0.8184896598192843  0.643561790570308  0.06219657573296936  1.0000
  H   H237      1.0  0.8431091377135846  0.5766140875244035  0.09113526027539261  1.0000
  H   H238      1.0  0.916967571396486  0.6254211226481919  0.024187557229488087  1.0000
  H   H239      1.0  0.8850054422003765  0.5524265302949154  0.996976555346314  1.0000
  H   H240      1.0  0.8755031875745064  0.6172146300167585  0.9235500423282251  1.0000
  C   C81       1.0  0.3943435669736183  0.8323111210932775  0.31271056132409597  1.0000
  C   C82       1.0  0.4228503308512292  0.8927800141669978  0.30882327534078535  1.0000
  O   O41       1.0  0.3818178676940619  0.933812477324165  0.31962129196109257  1.0000
  H   H241      1.0  0.42673761683453976  0.7977574679082945  0.3183255299666557  1.0000
  H   H242      1.0  0.36583680309600725  0.8249684697914685  0.27340578082617784  1.0000
  H   H243      1.0  0.3701560097441302  0.8262642317859055  0.35158342115720176  1.0000
  H   H244      1.0  0.4569720633713999  0.9001226654688066  0.34121732520170694  1.0000
  H   H245      1.0  0.4448782847566559  0.8970992208151206  0.26606312952436895  1.0000
  H   H246      1.0  0.3649729617663827  0.944610493944472  0.2816122734576113  1.0000
  C   C83       1.0  0.7955978645842332  0.9083291581002402  0.4284652994937889  1.0000
  C   C84       1.0  0.74592698813082  0.9515212245814687  0.43278450614191183  1.0000
  O   O42       1.0  0.708349890292151  0.9402912872963494  0.4815915412657003  1.0000
  H   H247      1.0  0.8245365491266563  0.9264698260223562  0.39563932896805515  1.0000
  H   H248      1.0  0.7778891173269292  0.8660009329486358  0.41637152087904494  1.0000
  H   H249      1.0  0.8219450251377827  0.9022822687928681  0.4656104766676457  1.0000
  H   H250      1.0  0.7670911007066222  0.9925536877386361  0.43710371279003474  1.0000
  H   H251      1.0  0.7221713515661442  0.9588638758832778  0.39477548763843057  1.0000
  H   H252      1.0  0.6889134603755981  0.9770045438053938  0.4897980338971337  1.0000
  C   C85       1.0  0.8858692835300012  0.12698467545481246  0.23323715899863512  1.0000
  C   C86       1.0  0.9212867780446087  0.07169883035883969  0.25137782692075117  1.0000
  O   O43       1.0  0.9778683851350182  0.08552029163283287  0.26044816088180917  1.0000
  H   H253      1.0  0.8422452963839602  0.11489089684006841  0.22287106304314022  1.0000
  H   H254      1.0  0.9087610787650523  0.14469342271211624  0.1965239024895907  1.0000
  H   H255      1.0  0.8850054422003765  0.15462759800279885  0.27167809816692867  1.0000
  H   H256      1.0  0.9057376341113663  0.0544220037663482  0.2932741314075431  1.0000
  H   H257      1.0  0.9161037300668613  0.040600542492355  0.21639225307095591  1.0000
  H   H258      1.0  0.9843471951072026  0.08422452963839602  0.30234446536860105  1.0000
  C   C87       1.0  0.4297610614882258  0.23928404830600716  0.7593165287400009  1.0000
  C   C88       1.0  0.3921839636495568  0.2954337347316045  0.7614761320640624  1.0000
  O   O44       1.0  0.39477548763843057  0.32221281594996626  0.705326445638465  1.0000
  H   H259      1.0  0.43278450614191183  0.2267583490264508  0.8051001192101035  1.0000
  H   H260      1.0  0.4712254453102054  0.24403517561894228  0.742903543477134  1.0000
  H   H261      1.0  0.40946079024204834  0.20213887113215045  0.7351289715105129  1.0000
  H   H262      1.0  0.3489918971683281  0.278156908139113  0.7722741486843696  1.0000
  H   H263      1.0  0.4038458215994886  0.3286916259221506  0.7955978645842332  1.0000
  H   H264      1.0  0.402981980269864  0.3615175964478844  0.7174202242532091  1.0000
  C   C89       1.0  0.6591109345035503  0.4522209360584647  0.4431506020974067  1.0000
  C   C90       1.0  0.6547917278554275  0.4077331075827991  0.3904562809903077  1.0000
  O   O45       1.0  0.6820027297386015  0.3559026278053247  0.4064373455883623  1.0000
  H   H265      1.0  0.6318999326203762  0.49282147855081976  0.43364834747153636  1.0000
  H   H266      1.0  0.7018710803199668  0.4694977626509562  0.4444463640918435  1.0000
  H   H267      1.0  0.6461533145591818  0.43192066481228725  0.48461498591938634  1.0000
  H   H268      1.0  0.6077123753908882  0.4034139009346763  0.3753390577218776  1.0000
  H   H269      1.0  0.6768196817608542  0.4271695374993521  0.35201534182201405  1.0000
  H   H270      1.0  0.6876176983811614  0.3541749451460755  0.44703788808071726  1.0000
  C   C91       1.0  0.9519531452462812  0.014685302603617768  0.44185484010296977  1.0000
  C   C92       1.0  0.004647466353380203  0.05139855911266218  0.43494410946597317  1.0000
  O   O46       1.0  0.026675420258806648  0.053558162436723615  0.3766348197163145  1.0000
  H   H271      1.0  0.9402912872963494  0.012525699279556332  0.48807035123788456  1.0000
  H   H272      1.0  0.9601596378777144  0.9706293947927644  0.42673761683453976  1.0000
  H   H273      1.0  0.9139441267427998  0.03368981185535841  0.4202588068623555  1.0000
  H   H274      1.0  0.998600577046008  0.09372678426426632  0.4517890153936525  1.0000
  H   H275      1.0  0.03574575421986492  0.032394049860921544  0.4621551113491474  1.0000
  H   H276      1.0  0.06900364541041104  0.057445448420034205  0.3762028990515022  1.0000
  C   C93       1.0  0.8413814550543356  0.44228676076778217  0.9856429571016395  1.0000
  C   C94       1.0  0.7921424992657348  0.4224184101864169  0.9441785732796599  1.0000
  O   O47       1.0  0.7424716228123218  0.4047096629291132  0.9748449404813323  1.0000
  H   H277      1.0  0.8409495343895232  0.4206907275271678  0.025811578929182177  1.0000
  H   H278      1.0  0.8288557557747793  0.48807035123788456  0.9955771323923222  1.0000
  H   H279      1.0  0.8837096802059395  0.4461740467510927  0.9675022891795235  1.0000
  H   H280      1.0  0.7822083239750521  0.4591316666954613  0.916967571396486  1.0000
  H   H281      1.0  0.808987405193414  0.3870009156718094  0.9182633333909226  1.0000
  H   H282      1.0  0.7571569254159395  0.37404329572744077  0.998600577046008  1.0000
  C   C95       1.0  0.5550180542837891  0.7571569254159395  0.9675022891795235  1.0000
  C   C96       1.0  0.5697033568874068  0.8184896598192843  0.9899621637497623  1.0000
  O   O48       1.0  0.521760163093243  0.8534752336690795  0.9847791157720148  1.0000
  H   H283      1.0  0.518736718439557  0.7364247335049497  0.9916898464090114  1.0000
  H   H284      1.0  0.590867469463209  0.7256267168846426  0.9783003057998307  1.0000
  H   H285      1.0  0.5532903716245399  0.7588846080751888  0.9199910160501718  1.0000
  H   H286      1.0  0.5822290561669632  0.8206492631433457  0.03574575421986492  1.0000
  H   H287      1.0  0.6094400580501372  0.8323111210932775  0.9679342098443358  1.0000
  H   H288      1.0  0.5355816243672362  0.8953715381558714  0.9843471951072026  1.0000
  C   C97       1.0  0.9394274459667248  0.3381938805480209  0.7450631468011955  1.0000
  C   C98       1.0  0.9148079680724244  0.3213489746203417  0.8055320398749156  1.0000
  O   O49       1.0  0.8837096802059395  0.2695184948428673  0.8012128332267928  1.0000
  H   H289      1.0  0.9722534164924586  0.3070955926815362  0.7286501615383286  1.0000
  H   H290      1.0  0.962319241201776  0.3800901850348128  0.7511100361085675  1.0000
  H   H291      1.0  0.9074653167706154  0.34164924586651924  0.7100775729514002  1.0000
  H   H292      1.0  0.9519531452462812  0.3140063233185328  0.8361984070765881  1.0000
  H   H293      1.0  0.8927800141669978  0.35676646913494925  0.8232407871322195  1.0000
  H   H294      1.0  0.8418133757191479  0.2820441941224236  0.8025085952212297  1.0000
  C   C99       1.0  0.3049359893574748  0.3282597052573383  0.9916898464090114  1.0000
  C   C100      1.0  0.3537430244812632  0.2889549247594202  0.02149237228105938  1.0000
  O   O50       1.0  0.38440939168293564  0.2639035262003075  0.9765726231405815  1.0000
  H   H295      1.0  0.32739586392771375  0.36367719977194585  0.9636150031962127  1.0000
  H   H296      1.0  0.281180352792799  0.3489918971683281  0.026675420258806648  1.0000
  H   H297      1.0  0.27254193949655325  0.30104870337416423  0.9700938131683972  1.0000
  H   H298      1.0  0.38440939168293564  0.31530208531296966  0.046543770840171916  1.0000
  H   H299      1.0  0.3325789119054612  0.25440127157443715  0.04870337416423354  1.0000
  H   H300      1.0  0.39520740830324286  0.2975933380556659  0.9519531452462812  1.0000
  C   C101      1.0  0.234532920993072  0.6677493477997961  0.9558404312295918  1.0000
  C   C102      1.0  0.196955823154403  0.6457213938943694  0.9074653167706154  1.0000
  O   O51       1.0  0.21941569772464192  0.5960505174409564  0.8780947115633799  1.0000
  H   H301      1.0  0.24187557229488088  0.6353552979388746  0.9895302430849501  1.0000
  H   H302      1.0  0.21552841174133133  0.7079179696273388  0.9735491784868954  1.0000
  H   H303      1.0  0.27858882880392527  0.6789792850849156  0.9407232079611617  1.0000
  H   H304      1.0  0.15635528066204799  0.6379468219277483  0.9256059846927316  1.0000
  H   H305      1.0  0.1960919818247784  0.6858900157219122  0.8780947115633799  1.0000
  H   H306      1.0  0.2613120022114338  0.6020974067483285  0.8616817263005132  1.0000
  C   C103      1.0  0.5351497037024239  0.19479621983034154  0.02840310291805581  1.0000
  C   C104      1.0  0.5848205801558369  0.19522814049515386  0.9860748777664518  1.0000
  O   O52       1.0  0.6008016447538915  0.13605500941587048  0.9726853371572707  1.0000
  H   H307      1.0  0.4941172405452566  0.17751939323785004  0.012853958984813785  1.0000
  H   H308      1.0  0.5273751317358027  0.23885212764119484  0.044816088180922975  1.0000
  H   H309      1.0  0.5489711649764171  0.1727682659249149  0.06684404208634964  1.0000
  H   H310      1.0  0.5697033568874068  0.2207114597190788  0.9493616212574074  1.0000
  H   H311      1.0  0.6176465506815707  0.2207114597190788  0.004647466353380203  1.0000
  H   H312      1.0  0.6379468219277483  0.13130388210293534  0.9899621637497623  1.0000
  C   C105      1.0  0.6737962371071682  0.12741659611962472  0.11618665883450528  1.0000
  C   C106      1.0  0.71569254159396  0.17579171057860088  0.13432732675662132  1.0000
  O   O53       1.0  0.6910730636996596  0.22891795235051227  0.11618665883450528  1.0000
  H   H313      1.0  0.6958241910125947  0.08292876764395915  0.11921010348819129  1.0000
  H   H314      1.0  0.6642939824812978  0.13044004077331076  0.0678115443755291  1.0000
  H   H315      1.0  0.63449145660925  0.12741659611962472  0.14253381938805482  1.0000
  H   H316      1.0  0.718715986247646  0.17449594858416406  0.18227052055078521  1.0000
  H   H317      1.0  0.7571569254159395  0.16326601129904458  0.11661857949931756  1.0000
  H   H318      1.0  0.6621343791572363  0.23626060365232116  0.14728494670098996  1.0000
  C   C107      1.0  0.21509649107651907  0.6634301411516732  0.35849415179419836  1.0000
  C   C108      1.0  0.22891795235051227  0.7273543995438917  0.34855997650351583  1.0000
  O   O54       1.0  0.1727682659249149  0.7558611634215027  0.344240769855393  1.0000
  H   H319      1.0  0.19738774381921528  0.6565194105146765  0.4012542976106149  1.0000
  H   H320      1.0  0.2565608748984986  0.6388106632573729  0.3507195798275773  1.0000
  H   H321      1.0  0.1865897271989081  0.6457213938943694  0.32696394326290146  1.0000
  H   H322      1.0  0.2531055095800003  0.7463589087956324  0.38440939168293564  1.0000
  H   H323      1.0  0.25224166825037575  0.7334012888512638  0.30839135467597306  1.0000
  H   H324      1.0  0.1494445500250514  0.7511100361085675  0.37793058171075133  1.0000
  C   C109      1.0  0.04232822515160415  0.643561790570308  0.9874743007204436  1.0000
  C   C110      1.0  0.0475112731293516  0.6750919991016049  0.045351669805290165  1.0000
  O   O55       1.0  0.10582056287901039  0.6940965083533456  0.051830479777474465  1.0000
  H   H325      1.0  0.047079352464539315  0.6746600784367928  0.9498972028817747  1.0000
  H   H326      1.0  0.9995680793351878  0.6262849639778165  0.9809954907482593  1.0000
  H   H327      1.0  0.06997114769959054  0.6068485340612636  0.9814274114130717  1.0000
  H   H328      1.0  0.021164112575802075  0.7143967795995231  0.04578359047010245  1.0000
  H   H329      1.0  0.036281335844232133  0.6483129178832431  0.08249684697914687  1.0000
  H   H330      1.0  0.10366095955494893  0.7364247335049497  0.041032463157167284  1.0000
  C   C111      1.0  0.8223769458025949  0.706622207632902  0.3360342772239595  1.0000
  C   C112      1.0  0.7882552132824242  0.7161244622587721  0.2777249874743007  1.0000
  O   O56       1.0  0.7290820822031409  0.7109414142810249  0.28679532143535874  1.0000
  H   H331      1.0  0.8081235638637895  0.74592698813082  0.3667006444256319  1.0000
  H   H332      1.0  0.8716159015911956  0.708349890292151  0.3312831499110243  1.0000
  H   H333      1.0  0.8094193258582264  0.6642939824812978  0.3537430244812632  1.0000
  H   H334      1.0  0.7994851505675437  0.7597484494048132  0.2626077642058707  1.0000
  H   H335      1.0  0.8046681985452911  0.6889134603755981  0.2410117309652563  1.0000
  H   H336      1.0  0.7269224788790796  0.6690451097942329  0.30234446536860105  1.0000
  C   C113      1.0  0.321780895285154  0.34812805583870354  0.22805411102088768  1.0000
  C   C114      1.0  0.35806223112938607  0.30968711667040993  0.1865897271989081  1.0000
  O   O57       1.0  0.3368981185535841  0.25267358891518804  0.18745356852853265  1.0000
  H   H337      1.0  0.32480433993884  0.3304193085813998  0.27167809816692867  1.0000
  H   H338      1.0  0.27858882880392527  0.35763031046457383  0.20386655379139956  1.0000
  H   H339      1.0  0.34855997650351583  0.3861370743421848  0.2310775556745737  1.0000
  H   H340      1.0  0.359357993123823  0.3261001019332769  0.14296574005286708  1.0000
  H   H341      1.0  0.4034139009346763  0.3109828786648468  0.1965239024895907  1.0000
  H   H342      1.0  0.30191254470378875  0.25137782692075117  0.16412985262866914  1.0000
  C   C115      1.0  0.07904148166064857  0.3446726905202052  0.6146231060278847  1.0000
  C   C116      1.0  0.11186745218638239  0.3852732330125602  0.5722948808762806  1.0000
  O   O58       1.0  0.10668440420863494  0.4453102054214681  0.5839567388262125  1.0000
  H   H343      1.0  0.032394049860921544  0.34121732520170694  0.6038250894075775  1.0000
  H   H344      1.0  0.08422452963839602  0.3697240890793179  0.6543598071906152  1.0000
  H   H345      1.0  0.09977367357163835  0.30277638603341334  0.621101916000069  1.0000
  H   H346      1.0  0.15678720132686028  0.37274753373300384  0.572726801541093  1.0000
  H   H347      1.0  0.10106943556607523  0.3753390577218776  0.524783607746929  1.0000
  H   H348      1.0  0.12266546880668958  0.45438053938252615  0.622397677994506  1.0000
  C   C117      1.0  0.793870181924984  0.9450424146092846  0.23971596897081945  1.0000
  C   C118      1.0  0.7740018313436188  0.8841416008707521  0.21596033240614362  1.0000
  O   O59       1.0  0.7925744199305471  0.8742074255800695  0.159378725315734  1.0000
  H   H349      1.0  0.7813444826454277  0.9476339385981581  0.28506763877610963  1.0000
  H   H350      1.0  0.7696826246954959  0.9787322264646429  0.22027953905426648  1.0000
  H   H351      1.0  0.8418133757191479  0.9472020179333459  0.23539676232269655  1.0000
  H   H352      1.0  0.7895509752768611  0.8482921856913321  0.24533093761337915  1.0000
  H   H353      1.0  0.7264905582142671  0.8819819975466905  0.21811993573020505  1.0000
  H   H354      1.0  0.7830721653046767  0.8336068830877145  0.1550595186676111  1.0000
  C   C119      1.0  0.9320847946649158  0.9649107651906497  0.609008137385325  1.0000
  C   C120      1.0  0.8729116635856325  0.9502254625870319  0.5822290561669632  1.0000
  O   O60       1.0  0.8638413296245745  0.888892728183687  0.5848205801558369  1.0000
  H   H355      1.0  0.9450424146092846  0.008534752336690765  0.596914358770581  1.0000
  H   H356      1.0  0.9618873205369637  0.9320847946649158  0.5982101207650178  1.0000
  H   H357      1.0  0.9260379053575439  0.9666384478498988  0.6522002038665538  1.0000
  H   H358      1.0  0.8418133757191479  0.9713895751628341  0.6046889307372021  1.0000
  H   H359      1.0  0.8724797429208202  0.9666384478498988  0.5386050690209222  1.0000
  H   H360      1.0  0.8232407871322195  0.8863012041948134  0.5714310395466561  1.0000
  C   C121      1.0  0.8115789291822877  0.9588638758832778  0.7446312261363831  1.0000
  C   C122      1.0  0.762339973393687  0.921718698709421  0.7213075102365196  1.0000
  O   O61       1.0  0.7489504327845061  0.9441785732796599  0.6673174271349838  1.0000
  H   H361      1.0  0.8500198683505813  0.9631830825314006  0.7178521449180213  1.0000
  H   H362      1.0  0.828423835109967  0.9433147319500355  0.7865275306231752  1.0000
  H   H363      1.0  0.7977574679082945  0.0037836250237555102  0.7498142741141306  1.0000
  H   H364      1.0  0.7774571966621171  0.8759351082393186  0.7131010176050863  1.0000
  H   H365      1.0  0.7221713515661442  0.927765588016793  0.7480865914548815  1.0000
  H   H366      1.0  0.7346970508457007  0.9100568407594892  0.6422660285758712  1.0000
  C   C123      1.0  0.05874121041447107  0.9005545861336189  0.4975726058637549  1.0000
  C   C124      1.0  0.01425338193880548  0.8552029163283288  0.5148494324562464  1.0000
  O   O62       1.0  0.006478809972184308  0.8137385325063492  0.4673381593268948  1.0000
  H   H367      1.0  0.09977367357163835  0.8789585528930046  0.4828873032601372  1.0000
  H   H368      1.0  0.06003697240890793  0.9307890326704789  0.5342858623727994  1.0000
  H   H369      1.0  0.043192066481228725  0.9290613500112298  0.4625870320139596  1.0000
  H   H370      1.0  0.025483319223924945  0.8344707244173389  0.5571776576078505  1.0000
  H   H371      1.0  0.9710613154575768  0.8772308702337555  0.5196005597691816  1.0000
  H   H372      1.0  0.9995680793351878  0.8370622484062127  0.43494410946597317  1.0000
  C   C125      1.0  0.74592698813082  0.5951866761113318  0.6275807259722535  1.0000
  C   C126      1.0  0.772706069349182  0.5796375321780896  0.5701352775522193  1.0000
  O   O63       1.0  0.7584526874103763  0.52305592508768  0.5537222922893522  1.0000
  H   H373      1.0  0.7549973220918781  0.562360705585598  0.6625662998220486  1.0000
  H   H374      1.0  0.6992795563310931  0.5999378034242671  0.6254211226481919  1.0000
  H   H375      1.0  0.7636357353881238  0.6366510599333114  0.6383787425925606  1.0000
  H   H376      1.0  0.762339973393687  0.6141911853630724  0.5386050690209222  1.0000
  H   H377      1.0  0.8176258184896598  0.5843886594910246  0.5779098495188404  1.0000
  H   H378      1.0  0.7951659439194209  0.5144175117914341  0.5325581797135502  1.0000
  C   C127      1.0  0.5748864048651543  0.13087196143812302  0.8076916431989772  1.0000
  C   C128      1.0  0.6284445673018779  0.16672137661754288  0.7895509752768611  1.0000
  O   O64       1.0  0.6509044418721168  0.14339766071767937  0.7381524161641989  1.0000
  H   H379      1.0  0.5852525008206493  0.08379260897358372  0.8055320398749156  1.0000
  H   H380      1.0  0.5407646723449836  0.13821461273993194  0.7765933553324925  1.0000
  H   H381      1.0  0.5606330229263489  0.14339766071767937  0.8508837096802059  1.0000
  H   H382      1.0  0.6103038993797619  0.2094815224339593  0.7813444826454277  1.0000
  H   H383      1.0  0.6612705378276117  0.16715329728235517  0.8202173424785336  1.0000
  H   H384      1.0  0.6401064252518097  0.10236519756051209  0.736856654169762  1.0000
  C   C129      1.0  0.9351082393186019  0.4815915412657003  0.8336068830877145  1.0000
  C   C130      1.0  0.9757087818109569  0.5282389730654273  0.8582263609820148  1.0000
  O   O65       1.0  0.03185846823655414  0.5049152571655638  0.8547709956635164  1.0000
  H   H385      1.0  0.8897565695133118  0.49498108187488116  0.8383580104006495  1.0000
  H   H386      1.0  0.9394274459667248  0.439263316114096  0.8539071543338919  1.0000
  H   H387      1.0  0.9467700972685337  0.4815915412657003  0.7873913719527996  1.0000
  H   H388      1.0  0.9709576544980218  0.5649522295744718  0.828423835109967  1.0000
  H   H389      1.0  0.9640469238610252  0.5442200376634819  0.9005545861336189  1.0000
  H   H390      1.0  0.04222456419204912  0.4923895578860074  0.8940757761614345  1.0000
  C   C131      1.0  0.8698882189319463  0.09027141894576803  0.8396537723950863  1.0000
  C   C132      1.0  0.8958034588206837  0.13346348542699676  0.8815500768818783  1.0000
  O   O66       1.0  0.9558404312295918  0.1282804374492493  0.872047822256008  1.0000
  H   H391      1.0  0.8258323111210931  0.09718214958276464  0.8310153590988406  1.0000
  H   H392      1.0  0.8772308702337555  0.043623987146041016  0.8452687410376462  1.0000
  H   H393      1.0  0.8824139182115028  0.10020559423645066  0.799917071232356  1.0000
  H   H394      1.0  0.8789585528930046  0.1762236312434132  0.8724797429208202  1.0000
  H   H395      1.0  0.8867331248596257  0.12612083412518788  0.9260379053575439  1.0000
  H   H396      1.0  0.9649107651906497  0.15117223268430052  0.8383580104006495  1.0000
  C   C133      1.0  0.8508837096802059  0.2626077642058707  0.0025915239888737234  1.0000
  C   C134      1.0  0.8210811838081581  0.27945267013354985  0.06046889307372022  1.0000
  O   O67       1.0  0.7627718940584993  0.3001848620445396  0.05010279711822533  1.0000
  H   H397      1.0  0.8953715381558714  0.2461947789430037  0.01554914393324234  1.0000
  H   H398      1.0  0.8612498056357009  0.2988891000501028  0.974516680776075  1.0000
  H   H399      1.0  0.824104628461844  0.2302137143449491  0.9801316494186347  1.0000
  H   H400      1.0  0.8158981358304106  0.24403517561894228  0.0915671809402049  1.0000
  H   H401      1.0  0.8452687410376462  0.3101190373352222  0.08422452963839602  1.0000
  H   H402      1.0  0.7321055268568268  0.27642922547986387  0.06867538570515368  1.0000
  C   C135      1.0  0.008966673001503  0.27945267013354985  0.318757450631468  1.0000
  C   C136      1.0  0.9869387190960764  0.3377619598832086  0.3429450078609561  1.0000
  O   O68       1.0  0.9977367357163835  0.3468322938442667  0.4047096629291132  1.0000
  H   H403      1.0  0.9968728943867589  0.24360325495413  0.3459684525146421  1.0000
  H   H404      1.0  0.05647794613085466  0.28333995611686047  0.3114147993296591  1.0000
  H   H405      1.0  0.9968728943867589  0.27167809816692867  0.27297386016136554  1.0000
  H   H406      1.0  0.007238990342253837  0.37447521639225306  0.3191893712962803  1.0000
  H   H407      1.0  0.9415870492907862  0.3386258012128332  0.3351704358943349  1.0000
  H   H408      1.0  0.03920111953836325  0.35719838979976154  0.41118847290129745  1.0000
  C   C137      1.0  0.577477928854028  0.3619495171126967  0.08724797429208203  1.0000
  C   C138      1.0  0.6314680119555639  0.3688602477496933  0.04967087645341304  1.0000
  O   O69       1.0  0.6297403292963148  0.4219864895216046  0.01857258858692835  1.0000
  H   H409      1.0  0.5671118328985331  0.3178936093018434  0.09372678426426632  1.0000
  H   H410      1.0  0.541196593009796  0.3749071370570653  0.06176465506815707  1.0000
  H   H411      1.0  0.5817971355021508  0.3861370743421848  0.12655275479000014  1.0000
  H   H412      1.0  0.6668855064701715  0.3701560097441302  0.07947340232546085  1.0000
  H   H413      1.0  0.6306041706259393  0.33344275323508576  0.01554914393324234  1.0000
  H   H414      1.0  0.6638620618164854  0.4293291408234135  0.9935211900278157  1.0000
  C   C139      1.0  0.7416077814826972  0.7882552132824242  0.52305592508768  1.0000
  C   C140      1.0  0.6953922703477825  0.8141704531711615  0.562360705585598  1.0000
  O   O70       1.0  0.7079179696273388  0.8733435842504448  0.5722948808762806  1.0000
  H   H415      1.0  0.7830721653046767  0.7787529586565539  0.5433561963338573  1.0000
  H   H416      1.0  0.7480865914548815  0.8154662151655983  0.4854788272490109  1.0000
  H   H417      1.0  0.7221713515661442  0.7463589087956324  0.5062110191600006  1.0000
  H   H418      1.0  0.6556555691850521  0.805963960539728  0.5373093070264853  1.0000
  H   H419      1.0  0.6923688256940965  0.7899828959416734  0.5986420414298301  1.0000
  H   H420      1.0  0.7169883035883967  0.888892728183687  0.5329901003783625  1.0000
  C   C141      1.0  0.9982723173407508  0.10970784886232096  0.059173131079283355  1.0000
  C   C142      1.0  0.018140667922116067  0.06522002038665538  0.10495672154938579  1.0000
  O   O71       1.0  0.04794319379416389  0.09372678426426632  0.1516041533491128  1.0000
  H   H421      1.0  0.03498557384979527  0.12741659611962472  0.03887285983310585  1.0000
  H   H422      1.0  0.974516680776075  0.14037421606399336  0.08767989495689432  1.0000
  H   H423      1.0  0.9723570774520136  0.09372678426426632  0.025483319223924945  1.0000
  H   H424      1.0  0.9809954907482593  0.03498557384979527  0.12266546880668958  1.0000
  H   H425      1.0  0.046647431799727024  0.03671325650904442  0.08249684697914687  1.0000
  H   H426      1.0  0.018140667922116067  0.10236519756051209  0.18097475855634834  1.0000
  C   C143      1.0  0.5252155284117414  0.17795131390266236  0.6236934399889428  1.0000
  C   C144      1.0  0.5075067811544375  0.1766555519082255  0.5593372609319119  1.0000
  O   O72       1.0  0.4453102054214681  0.1732001865897272  0.5541542129541644  1.0000
  H   H427      1.0  0.5714310395466561  0.17104058326566574  0.6249892019833797  1.0000
  H   H428      1.0  0.5018918125118778  0.1485807086954268  0.6517682832017414  1.0000
  H   H429      1.0  0.5239197664173044  0.22200722171351567  0.6401064252518097  1.0000
  H   H430      1.0  0.5269432110709904  0.21509649107651907  0.5368773863616731  1.0000
  H   H431      1.0  0.5308304970543011  0.1386465334047442  0.542924275669045  1.0000
  H   H432      1.0  0.43148874414747496  0.20991344309877158  0.56840759489297  1.0000
  C   C145      1.0  0.26692697085399353  0.754565401427066  0.08638413296245745  1.0000
  C   C146      1.0  0.2500820649263143  0.8163300564952228  0.09890983224201379  1.0000
  O   O73       1.0  0.21898377705982966  0.8444048997080216  0.05312624177191133  1.0000
  H   H433      1.0  0.2893868454242325  0.7394481781586358  0.12396123080112642  1.0000
  H   H434      1.0  0.2980252587204782  0.753269639432629  0.048807035123788464  1.0000
  H   H435      1.0  0.22589450769682626  0.7312416855272023  0.0846564503032083  1.0000
  H   H436      1.0  0.22459874570238939  0.8141704531711615  0.1390784540695565  1.0000
  H   H437      1.0  0.2893868454242325  0.8448368203728338  0.10279711822532436  1.0000
  H   H438      1.0  0.24878630293187745  0.8552029163283288  0.025051398559112665  1.0000
  C   C147      1.0  0.18054283789153605  0.18270244121559748  0.15419567733798653  1.0000
  C   C148      1.0  0.20473039512102417  0.21639225307095591  0.10366095955494893  1.0000
  O   O74       1.0  0.23626060365232116  0.2621758435410584  0.1282804374492493  1.0000
  H   H439      1.0  0.14253381938805482  0.20516231578583644  0.17535978991378864  1.0000
  H   H440      1.0  0.21941569772464192  0.17363210725453948  0.18399820321003435  1.0000
  H   H441      1.0  0.16499369395829375  0.1390784540695565  0.13605500941587048  1.0000
  H   H442      1.0  0.23323715899863512  0.19090893384703095  0.07558611634215026  1.0000
  H   H443      1.0  0.1723363452601026  0.23410100032825967  0.07213075102365198  1.0000
  H   H444      1.0  0.20991344309877158  0.2950018140667922  0.13389540609180905  1.0000
  C   C149      1.0  0.3049359893574748  0.5083706224840621  0.3783625023755636  1.0000
  C   C150      1.0  0.29975294137972736  0.5079387018192498  0.3140063233185328  1.0000
  O   O75       1.0  0.26606312952436895  0.5554499749486014  0.29284221074273076  1.0000
  H   H445      1.0  0.3386258012128332  0.47684041395276516  0.38872859833105855  1.0000
  H   H446      1.0  0.2639035262003075  0.49843644719337943  0.402981980269864  1.0000
  H   H447      1.0  0.3243724192740277  0.5515626889652908  0.39132012231993224  1.0000
  H   H448      1.0  0.3438088491905807  0.5092344638136868  0.2954337347316045  1.0000
  H   H449      1.0  0.28593148010573416  0.46647431799727024  0.29932102071491506  1.0000
  H   H450      1.0  0.2578566368929355  0.5476754029819803  0.25267358891518804  1.0000
  C   C151      1.0  0.1390784540695565  0.7601803700696256  0.550266926970854  1.0000
  C   C152      1.0  0.1589468046509217  0.7234671135605811  0.4971406851989426  1.0000
  O   O76       1.0  0.12223354814187727  0.7316736061920145  0.44919749140477877  1.0000
  H   H451      1.0  0.13130388210293534  0.8033724365508543  0.5329901003783625  1.0000
  H   H452      1.0  0.1697448212712289  0.7606122907344378  0.5856844214854615  1.0000
  H   H453      1.0  0.09329486359945405  0.7437673848067586  0.5632245469152226  1.0000
  H   H454      1.0  0.20084310913771358  0.7390162574938235  0.4867745892434477  1.0000
  H   H455      1.0  0.16456177329348146  0.6768196817608542  0.5053471778303761  1.0000
  H   H456      1.0  0.08724797429208203  0.7109414142810249  0.46129127001952275  1.0000
  C   C153      1.0  0.9497935419222195  0.1390784540695565  0.6655897444757346  1.0000
  C   C154      1.0  0.9899621637497623  0.18054283789153605  0.6945284290181579  1.0000
  O   O77       1.0  0.9800279884590798  0.18529396520447122  0.7558611634215027  1.0000
  H   H457      1.0  0.9700938131683972  0.12655275479000014  0.6236934399889428  1.0000
  H   H458      1.0  0.9083291581002402  0.15721912199167254  0.652632124531366  1.0000
  H   H459      1.0  0.9450424146092846  0.09761407024757693  0.6876176983811614  1.0000
  H   H460      1.0  0.03488191289024023  0.1688809799416043  0.6820027297386015  1.0000
  H   H461      1.0  0.9856429571016395  0.22157530104870335  0.6755239197664172  1.0000
  H   H462      1.0  0.9467700972685337  0.21250496708764532  0.7606122907344378  1.0000
  C   C155      1.0  0.3818178676940619  0.050534717783037614  0.4625870320139596  1.0000
  C   C156      1.0  0.32955546725177515  0.08767989495689432  0.4798638586064511  1.0000
  O   O78       1.0  0.34812805583870354  0.14685302603617767  0.4867745892434477  1.0000
  H   H463      1.0  0.36583680309600725  0.008206492631433459  0.45481246004733844  1.0000
  H   H464      1.0  0.412052314230922  0.050534717783037614  0.49800452652856725  1.0000
  H   H465      1.0  0.3990946942865534  0.06522002038665538  0.4224184101864169  1.0000
  H   H466      1.0  0.2954337347316045  0.08681605362726974  0.44790172941034184  1.0000
  H   H467      1.0  0.3079594340111608  0.06867538570515368  0.5178728771099325  1.0000
  H   H468      1.0  0.38138594702924966  0.14771686736580225  0.5144175117914341  1.0000
  C   C157      1.0  0.003887285983310585  0.9952488726870649  0.7524057981030045  1.0000
  C   C158      1.0  0.042760145816416434  0.03109828786648468  0.7882552132824242  1.0000
  O   O79       1.0  0.10279711822532436  0.023323715899863512  0.7709783866899327  1.0000
  H   H469      1.0  0.015117223268430055  0.003023444653686011  0.7070541282977143  1.0000
  H   H470      1.0  0.9598313781724573  0.011661857949931756  0.7562930840863149  1.0000
  H   H471      1.0  0.009070333961058033  0.947305678892901  0.7588846080751888  1.0000
  H   H472      1.0  0.02850676387761096  0.0747222750125257  0.7778891173269292  1.0000
  H   H473      1.0  0.030666367201672394  0.022891795235051225  0.8336068830877145  1.0000
  H   H474      1.0  0.12093778614744044  0.006478809972184308  0.8055320398749156  1.0000
  C   C159      1.0  0.5524265302949154  0.4539486187177139  0.240579810300444  1.0000
  C   C160      1.0  0.5204644010988062  0.3960712496328674  0.2531055095800003  1.0000
  O   O80       1.0  0.4608593493547105  0.409028869577236  0.2608800815466215  1.0000
  H   H475      1.0  0.5951866761113318  0.4396952367789084  0.2336690796634474  1.0000
  H   H476      1.0  0.5506988476356662  0.4867745892434477  0.27642922547986387  1.0000
  H   H477      1.0  0.5316943383839257  0.478136175947202  0.20386655379139956  1.0000
  H   H478      1.0  0.5265112904061782  0.36454104110157043  0.2176880150653928  1.0000
  H   H479      1.0  0.5424923550042328  0.3787944230403759  0.29370605207235534  1.0000
  H   H480      1.0  0.4487655707399664  0.3870009156718094  0.2971614173908536  1.0000
  C   C161      1.0  0.7139648589347108  0.08336068830877144  0.3006167827093519  1.0000
  C   C162      1.0  0.7619080527288747  0.11532281750488069  0.33344275323508576  1.0000
  O   O81       1.0  0.7662272593769976  0.09631830825314006  0.39088820165512  1.0000
  H   H481      1.0  0.7105094936162125  0.09718214958276464  0.25440127157443715  1.0000
  H   H482      1.0  0.6750919991016049  0.0915671809402049  0.3261001019332769  1.0000
  H   H483      1.0  0.727786320208704  0.03887285983310585  0.30839135467597306  1.0000
  H   H484      1.0  0.8020766745564174  0.10798016620307181  0.3101190373352222  1.0000
  H   H485      1.0  0.7511100361085675  0.15981064598054628  0.3291235465869629  1.0000
  H   H486      1.0  0.805963960539728  0.10754824553825953  0.40255005960505175  1.0000
  C   C163      1.0  0.6876176983811614  0.6241253606537551  0.9040099514521172  1.0000
  C   C164      1.0  0.6897773017052227  0.6340595359444376  0.9705257338332094  1.0000
  O   O82       1.0  0.7303778441975778  0.6794112057497279  0.9830514331127657  1.0000
  H   H487      1.0  0.6798431264145401  0.6651578238109224  0.8824139182115028  1.0000
  H   H488      1.0  0.6517682832017414  0.5925951521224582  0.89321193483181  1.0000
  H   H489      1.0  0.7256267168846426  0.6012335654187038  0.8914842521725609  1.0000
  H   H490      1.0  0.64960867987768  0.6409702665814343  0.9916898464090114  1.0000
  H   H491      1.0  0.7014391596551546  0.5930270727872704  0.9912579257441992  1.0000
  H   H492      1.0  0.7683868627010589  0.6707727924534821  0.9649107651906497  1.0000
  C   C165      1.0  0.8128746911767246  0.29370605207235534  0.25872047822256006  1.0000
  C   C166      1.0  0.7735699106788064  0.30234446536860105  0.3105509580000345  1.0000
  O   O83       1.0  0.78177640331024  0.3546068658108878  0.3394896425424578  1.0000
  H   H493      1.0  0.7943021025897963  0.26044816088180917  0.2302137143449491  1.0000
  H   H494      1.0  0.8573625196523903  0.28333995611686047  0.27902074946873756  1.0000
  H   H495      1.0  0.818057739154472  0.3317150705758366  0.23150947633938598  1.0000
  H   H496      1.0  0.7299459235327654  0.30579983068709937  0.2971614173908536  1.0000
  H   H497      1.0  0.774433752008431  0.26649505018918124  0.34078540453689465  1.0000
  H   H498      1.0  0.7467908294604446  0.35676646913494925  0.36324527910713356  1.0000
  C   C167      1.0  0.6595428551683626  0.5213282424284307  0.7524057981030045  1.0000
  C   C168      1.0  0.6137592646982603  0.49109379589157065  0.7947340232546086  1.0000
  O   O84       1.0  0.6426979492406834  0.47165736597501773  0.8439729790432092  1.0000
  H   H499      1.0  0.6357872186036868  0.5455157996579187  0.7174202242532091  1.0000
  H   H500      1.0  0.6880496190459736  0.4906618752267583  0.7299459235327654  1.0000
  H   H501      1.0  0.6858900157219122  0.5550180542837891  0.7774571966621171  1.0000
  H   H502      1.0  0.5839567388262125  0.5234878457524921  0.8033724365508543  1.0000
  H   H503      1.0  0.5904355487983967  0.4552443807121508  0.7705464660251204  1.0000
  H   H504      1.0  0.6750919991016049  0.4444463640918435  0.8344707244173389  1.0000
  C   C169      1.0  0.7226032722309566  0.5895717074687721  0.41162039356610974  1.0000
  C   C170      1.0  0.6785473644201032  0.590867469463209  0.35892607245901065  1.0000
  O   O85       1.0  0.708349890292151  0.595618596776144  0.3075275133463485  1.0000
  H   H505      1.0  0.7571569254159395  0.6241253606537551  0.4085969489124237  1.0000
  H   H506      1.0  0.7493823534493185  0.550266926970854  0.41032463157167287  1.0000
  H   H507      1.0  0.6984157150014686  0.5995058827594547  0.4522209360584647  1.0000
  H   H508      1.0  0.6483129178832431  0.5506988476356662  0.3606537551182598  1.0000
  H   H509      1.0  0.6517682832017414  0.6280126466370656  0.3559026278053247  1.0000
  H   H510      1.0  0.705326445638465  0.5576095782726629  0.2889549247594202  1.0000
  C   C171      1.0  0.5252155284117414  0.3615175964478844  0.8582263609820148  1.0000
  C   C172      1.0  0.4941172405452566  0.3615175964478844  0.9199910160501718  1.0000
  O   O86       1.0  0.434512188801161  0.3615175964478844  0.9083291581002402  1.0000
  H   H511      1.0  0.5083706224840621  0.32696394326290146  0.8297195971044038  1.0000
  H   H512      1.0  0.5718629602114683  0.3602218344534476  0.8625455676301378  1.0000
  H   H513      1.0  0.5144175117914341  0.40255005960505175  0.8323111210932775  1.0000
  H   H514      1.0  0.5062110191600006  0.3239404986092154  0.9489297005925951  1.0000
  H   H515      1.0  0.506642939824813  0.3960712496328674  0.9467700972685337  1.0000
  H   H516      1.0  0.4189630448679186  0.40082237694580264  0.9100568407594892  1.0000
  C   C173      1.0  0.08681605362726974  0.23150947633938598  0.9061695547761786  1.0000
  C   C174      1.0  0.06953922703477824  0.18183859988597292  0.9463381766037212  1.0000
  O   O87       1.0  0.06522002038665538  0.12741659611962472  0.9195590953853595  1.0000
  H   H517      1.0  0.053990083101535906  0.23842020697638258  0.8711839809263833  1.0000
  H   H518      1.0  0.12612083412518788  0.21639225307095591  0.8841416008707521  1.0000
  H   H519      1.0  0.09329486359945405  0.27297386016136554  0.9273336673519806  1.0000
  H   H520      1.0  0.10236519756051209  0.18227052055078521  0.9795960677942674  1.0000
  H   H521      1.0  0.028938684542423248  0.19177277517665556  0.9670703685147112  1.0000
  H   H522      1.0  0.026779081218361808  0.12352931013631414  0.903578030787305  1.0000
  C   C175      1.0  0.8495879476857691  0.09977367357163835  0.5515626889652908  1.0000
  C   C176      1.0  0.8703201395967589  0.15635528066204799  0.5226240044228676  1.0000
  O   O88       1.0  0.8863012041948134  0.14296574005286708  0.46517855600283337  1.0000
  H   H523      1.0  0.8837096802059395  0.06737962371071682  0.5589053402670997  1.0000
  H   H524      1.0  0.8202173424785336  0.0747222750125257  0.52305592508768  1.0000
  H   H525      1.0  0.8361984070765881  0.10582056287901039  0.5947547554465196  1.0000
  H   H526      1.0  0.833174962422902  0.18399820321003435  0.5204644010988062  1.0000
  H   H527      1.0  0.906601475440991  0.1727682659249149  0.5442200376634819  1.0000
  H   H528      1.0  0.924742143363107  0.15765104265648483  0.4621551113491474  1.0000
  C   C177      1.0  0.8595221229764516  0.3261001019332769  0.5170090357803079  1.0000
  C   C178      1.0  0.8474283443617077  0.3459684525146421  0.455676301376963  1.0000
  O   O89       1.0  0.8880288868540627  0.39088820165512  0.4453102054214681  1.0000
  H   H529      1.0  0.8448368203728338  0.3615175964478844  0.5455157996579187  1.0000
  H   H530      1.0  0.9027141894576803  0.31271056132409597  0.5291028143950519  1.0000
  H   H531      1.0  0.8288557557747793  0.2962975760612291  0.5316943383839257  1.0000
  H   H532      1.0  0.8517475510098304  0.3101190373352222  0.4202588068623555  1.0000
  H   H533      1.0  0.8025085952212297  0.3619495171126967  0.4517890153936525  1.0000
  H   H534      1.0  0.927765588016793  0.3766348197163145  0.44055907810853295  1.0000
  C   C179      1.0  0.9070333961058032  0.7217394309013321  0.5316943383839257  1.0000
  C   C180      1.0  0.9506573832518443  0.6889134603755981  0.5757502461947789  1.0000
  O   O90       1.0  0.916967571396486  0.6742281577719804  0.6236934399889428  1.0000
  H   H535      1.0  0.8660009329486358  0.6992795563310931  0.5243516870821168  1.0000
  H   H536      1.0  0.927765588016793  0.7308097648623899  0.4897980338971337  1.0000
  H   H537      1.0  0.8966673001503084  0.7662272593769976  0.5498350063060417  1.0000
  H   H538      1.0  0.9713895751628341  0.6470171558888063  0.5602011022615365  1.0000
  H   H539      1.0  0.9895302430849501  0.7178521449180213  0.5878440248095229  1.0000
  H   H540      1.0  0.9044418721169294  0.7100775729514002  0.6431298699054957  1.0000
  C   C181      1.0  0.25828855755774777  0.4064373455883623  0.6958241910125947  1.0000
  C   C182      1.0  0.2302137143449491  0.4660423973324579  0.6984157150014686  1.0000
  O   O91       1.0  0.1688809799416043  0.4643147146732088  0.6893453810404104  1.0000
  H   H541      1.0  0.2539693509096249  0.38484131234774793  0.7372885748345743  1.0000
  H   H542      1.0  0.3053679100222871  0.40730118691798683  0.688481539710786  1.0000
  H   H543      1.0  0.23410100032825967  0.37404329572744077  0.6703408717886697  1.0000
  H   H544      1.0  0.240579810300444  0.4854788272490109  0.7420397021475095  1.0000
  H   H545      1.0  0.24921822359668971  0.49325339921563194  0.666021665140547  1.0000
  H   H546      1.0  0.1550595186676111  0.4483336500751542  0.7269224788790796  1.0000
  C   C183      1.0  0.9995680793351878  0.3615175964478844  0.9675022891795235  1.0000
  C   C184      1.0  0.04621551113491474  0.402981980269864  0.9899621637497623  1.0000
  O   O92       1.0  0.0440559078108533  0.4586997460306491  0.9636150031962127  1.0000
  H   H547      1.0  0.9991361586703754  0.3191893712962803  0.9890983224201377  1.0000
  H   H548      1.0  0.011229937285119469  0.3507195798275773  0.9243102226982948  1.0000
  H   H549      1.0  0.9559440921891467  0.3800901850348128  0.9675022891795235  1.0000
  H   H550      1.0  0.04016862182754271  0.4146438382197957  0.035313833555052465  1.0000
  H   H551      1.0  0.08681605362726974  0.3818178676940619  0.9813237504535166  1.0000
  H   H552      1.0  0.08249684697914687  0.4742488899638914  0.9692299718387727  1.0000
  C   C185      1.0  0.0846564503032083  0.5027556538415023  0.4293291408234135  1.0000
  C   C186      1.0  0.10798016620307181  0.53817314835611  0.47900001727682656  1.0000
  O   O93       1.0  0.06306041706259394  0.5386050690209222  0.5196005597691816  1.0000
  H   H553      1.0  0.09243102226982948  0.4574039840362122  0.43192066481228725  1.0000
  H   H554      1.0  0.09718214958276464  0.518736718439557  0.3861370743421848  1.0000
  H   H555      1.0  0.03671325650904442  0.5062110191600006  0.42673761683453976  1.0000
  H   H556      1.0  0.14469342271211624  0.5165771151154955  0.4988683678581918  1.0000
  H   H557      1.0  0.11618665883450528  0.5826609768317755  0.4669062386620825  1.0000
  H   H558      1.0  0.07256267168846427  0.506642939824813  0.5442200376634819  1.0000
  C   C187      1.0  0.22805411102088768  0.36238143777750903  0.402981980269864  1.0000
  C   C188      1.0  0.1732001865897272  0.3286916259221506  0.38138594702924966  1.0000
  O   O94       1.0  0.12352931013631414  0.36238143777750903  0.393911646308806  1.0000
  H   H559      1.0  0.2371244449819457  0.3982308529569289  0.3766348197163145  1.0000
  H   H560      1.0  0.269086574178055  0.3368981185535841  0.39866277362174113  1.0000
  H   H561      1.0  0.22719026969126307  0.37447521639225306  0.44790172941034184  1.0000
  H   H562      1.0  0.1796789965619115  0.3183255299666557  0.33430659456471035  1.0000
  H   H563      1.0  0.17147250393047805  0.2876591627649833  0.39866277362174113  1.0000
  H   H564      1.0  0.121801627477065  0.3895924396606831  0.36238143777750903  1.0000
  C   C189      1.0  0.2176880150653928  0.5001641298526286  0.021060451616247144  1.0000
  C   C190      1.0  0.16499369395829375  0.5295347350598641  0.002055942364506347  1.0000
  O   O95       1.0  0.1490126293602391  0.5174409564451201  0.9450424146092846  1.0000
  H   H565      1.0  0.25440127157443715  0.5165771151154955  0.9951452117275098  1.0000
  H   H566      1.0  0.21811993573020505  0.4539486187177139  0.00810283167187853  1.0000
  H   H567      1.0  0.22805411102088768  0.5014598918470655  0.06813980408078613  1.0000
  H   H568      1.0  0.13087196143812302  0.5161451944506833  0.030562706242117432  1.0000
  H   H569      1.0  0.17017674193604118  0.5770460081892158  0.003351704358943275  1.0000
  H   H570      1.0  0.1693129006064166  0.5468115616523557  0.9212867780446087  1.0000
  C   C191      1.0  0.5446519583282942  0.26692697085399353  0.3749071370570653  1.0000
  C   C192      1.0  0.6081442960557004  0.2500820649263143  0.36367719977194585  1.0000
  O   O96       1.0  0.6280126466370656  0.28679532143535874  0.321780895285154  1.0000
  H   H571      1.0  0.5377412276912976  0.31314248198890826  0.3718836924033793  1.0000
  H   H572      1.0  0.5286708937302396  0.2509459062559389  0.4159396002142326  1.0000
  H   H573      1.0  0.5161451944506833  0.24835438226706516  0.34208116653133147  1.0000
  H   H574      1.0  0.6357872186036868  0.2500820649263143  0.40255005960505175  1.0000
  H   H575      1.0  0.605984692731639  0.20861768110433473  0.34121732520170694  1.0000
  H   H576      1.0  0.6513363625369292  0.3161659266425943  0.34078540453689465  1.0000
  C   C193      1.0  0.29197836941310623  0.29284221074273076  0.565384150239284  1.0000
  C   C194      1.0  0.3230766572795909  0.2500820649263143  0.6046889307372021  1.0000
  O   O97       1.0  0.3857051536773725  0.25958431955218464  0.6042570100723899  1.0000
  H   H577      1.0  0.29241029007791847  0.3368981185535841  0.5817971355021508  1.0000
  H   H578      1.0  0.24792246160225284  0.27556538415023923  0.5610649435911611  1.0000
  H   H579      1.0  0.3105509580000345  0.29197836941310623  0.5234878457524921  1.0000
  H   H580      1.0  0.3070955926815362  0.2569927955633109  0.6491767592128677  1.0000
  H   H581      1.0  0.30882327534078535  0.20732191910989786  0.590867469463209  1.0000
  H   H582      1.0  0.39563932896805515  0.278156908139113  0.6414021872462466  1.0000
  C   C195      1.0  0.3209170539555294  0.6323318532851886  0.7230351928957688  1.0000
  C   C196      1.0  0.2880910834297956  0.6137592646982603  0.7765933553324925  1.0000
  O   O98       1.0  0.3183255299666557  0.6314680119555639  0.8275599937803424  1.0000
  H   H583      1.0  0.29241029007791847  0.6275807259722535  0.6837304123978507  1.0000
  H   H584      1.0  0.3559026278053247  0.6051208514020144  0.7122371762754618  1.0000
  H   H585      1.0  0.3368981185535841  0.6772516024256664  0.7230351928957688  1.0000
  H   H586      1.0  0.24403517561894228  0.6327637739500008  0.7787529586565539  1.0000
  H   H587      1.0  0.27642922547986387  0.56840759489297  0.7761614346676802  1.0000
  H   H588      1.0  0.3524472624868264  0.6534959658609906  0.8158981358304106  1.0000
  C   C197      1.0  0.4742488899638914  0.5368773863616731  0.4077331075827991  1.0000
  C   C198      1.0  0.4988683678581918  0.5351497037024239  0.4677700799917071  1.0000
  O   O99       1.0  0.4777042552823897  0.5813652148373387  0.5005960505174409  1.0000
  H   H589      1.0  0.5044833365007515  0.5122579084673726  0.3835455503533111  1.0000
  H   H590      1.0  0.47036160398058086  0.5839567388262125  0.3977989322921166  1.0000
  H   H591      1.0  0.43148874414747496  0.5161451944506833  0.40946079024204834  1.0000
  H   H592      1.0  0.48807035123788456  0.4923895578860074  0.4867745892434477  1.0000
  H   H593      1.0  0.542924275669045  0.53817314835611  0.4608593493547105  1.0000
  H   H594      1.0  0.47554465195832823  0.615055026692697  0.47727233461757745  1.0000
  C   C199      1.0  0.08292876764395915  0.19825158514883984  0.47727233461757745  1.0000
  C   C200      1.0  0.022891795235051225  0.21552841174133133  0.499300288523004  1.0000
  O   O100      1.0  0.9809954907482593  0.21077728442839616  0.4535166980529016  1.0000
  H   H595      1.0  0.0950225462587032  0.21639225307095591  0.43321642680672406  1.0000
  H   H596      1.0  0.08163300564952229  0.15289991534354969  0.4656104766676457  1.0000
  H   H597      1.0  0.11921010348819129  0.20645807778027328  0.5070748604896251  1.0000
  H   H598      1.0  0.005183047977747447  0.18615780653409578  0.5325581797135502  1.0000
  H   H599      1.0  0.02850676387761096  0.2608800815466215  0.515713273785871  1.0000
  H   H600      1.0  0.9978403966759386  0.23237331766901057  0.4219864895216046  1.0000
  C   C201      1.0  0.7463589087956324  0.799917071232356  0.8608178849708885  1.0000
  C   C202      1.0  0.7515419567733798  0.8461325823672707  0.906601475440991  1.0000
  O   O101      1.0  0.8115789291822877  0.8651370916190114  0.9044418721169294  1.0000
  H   H601      1.0  0.7070541282977143  0.7778891173269292  0.8755031875745064  1.0000
  H   H602      1.0  0.7800487206509908  0.765363418047373  0.8672966949430727  1.0000
  H   H603      1.0  0.74592698813082  0.8189215804840967  0.8141704531711615  1.0000
  H   H604      1.0  0.7230351928957688  0.8841416008707521  0.9009865067984312  1.0000
  H   H605      1.0  0.742903543477134  0.8258323111210931  0.9484977799277828  1.0000
  H   H606      1.0  0.8379260897358372  0.8370622484062127  0.9208548573797964  1.0000
  C   C203      1.0  0.4742488899638914  0.5044833365007515  0.708349890292151  1.0000
  C   C204      1.0  0.4142119175549835  0.49454916121006887  0.7377204954993866  1.0000
  O   O102      1.0  0.41162039356610974  0.4366717921252224  0.7636357353881238  1.0000
  H   H607      1.0  0.5075067811544375  0.4919576372211952  0.7394481781586358  1.0000
  H   H608      1.0  0.4828873032601372  0.5506988476356662  0.6940965083533456  1.0000
  H   H609      1.0  0.478136175947202  0.478136175947202  0.6716366337831067  1.0000
  H   H610      1.0  0.4051415835939254  0.527807052400615  0.7701145453603081  1.0000
  H   H611      1.0  0.3822497883588742  0.5018918125118778  0.7018710803199668  1.0000
  H   H612      1.0  0.4098927109068606  0.446605967415905  0.8046681985452911  1.0000
  C   C205      1.0  0.8124427705119123  0.012422038320001105  0.06262849639778165  1.0000
  C   C206      1.0  0.8154662151655983  0.953248907240718  0.03196212919610925  1.0000
  O   O103      1.0  0.7705464660251204  0.9195590953853595  0.05874121041447107  1.0000
  H   H613      1.0  0.7701145453603081  0.030130785577304975  0.056149686425597346  1.0000
  H   H614      1.0  0.8457006617024584  0.039633040203175485  0.04578359047010245  1.0000
  H   H615      1.0  0.8206492631433457  0.005079387018192438  0.1088440075326964  1.0000
  H   H616      1.0  0.8068278018693525  0.95929579654809  0.98488277673157  1.0000
  H   H617      1.0  0.8590902023116394  0.9333805566593527  0.03584941517941984  1.0000
  H   H618      1.0  0.7796167999861785  0.9109206820891138  0.09890983224201379  1.0000
  C   C207      1.0  0.3036402273630379  0.17708747257303775  0.3377619598832086  1.0000
  C   C208      1.0  0.3671325650904442  0.19393237850071698  0.33646619788877175  1.0000
  O   O104      1.0  0.37922634370518815  0.22848603168569995  0.3835455503533111  1.0000
  H   H619      1.0  0.29025068675385707  0.14512534337692853  0.371451771738567  1.0000
  H   H620      1.0  0.28506763877610963  0.1662894559527306  0.2954337347316045  1.0000
  H   H621      1.0  0.28549955944092187  0.21855185639501737  0.353311103816451  1.0000
  H   H622      1.0  0.396935090962492  0.15721912199167254  0.3373300392183964  1.0000
  H   H623      1.0  0.3731794543978162  0.22243914237832796  0.2988891000501028  1.0000
  H   H624      1.0  0.36324527910713356  0.21164112575802077  0.4189630448679186  1.0000
  C   C209      1.0  0.2608800815466215  0.8806862355522537  0.506642939824813  1.0000
  C   C210      1.0  0.22891795235051227  0.9355401599834142  0.4867745892434477  1.0000
  O   O105      1.0  0.24360325495413  0.953248907240718  0.4297610614882258  1.0000
  H   H625      1.0  0.30882327534078535  0.8910523315077487  0.5096663844784989  1.0000
  H   H626      1.0  0.24921822359668971  0.8474283443617077  0.47511273129351594  1.0000
  H   H627      1.0  0.24749054093744058  0.8716159015911956  0.5515626889652908  1.0000
  H   H628      1.0  0.18227052055078521  0.9286294293464176  0.490229954561946  1.0000
  H   H629      1.0  0.23928404830600716  0.9718214958276463  0.515713273785871  1.0000
  H   H630      1.0  0.2634716055354952  0.9212867780446087  0.41032463157167287  1.0000
  C   C211      1.0  0.8996907448039945  0.8046681985452911  0.02883502358286827  1.0000
  C   C212      1.0  0.8474283443617077  0.7662272593769976  0.011990117655189092  1.0000
  O   O106      1.0  0.8517475510098304  0.7601803700696256  0.9493616212574074  1.0000
  H   H631      1.0  0.9411551286259738  0.7835040859694891  0.018900848292185524  1.0000
  H   H632      1.0  0.899258824139182  0.8206492631433457  0.07029940740484775  1.0000
  H   H633      1.0  0.896235379485496  0.8452687410376462  0.0016240216996941115  1.0000
  H   H634      1.0  0.8539071543338919  0.7256267168846426  0.03272230956617883  1.0000
  H   H635      1.0  0.8094193258582264  0.7921424992657348  0.024083896269933014  1.0000
  H   H636      1.0  0.830151517769216  0.7286501615383286  0.9351082393186019  1.0000
  C   C213      1.0  0.953248907240718  0.2807484321279867  0.1490126293602391  1.0000
  C   C214      1.0  0.9839152744423904  0.32739586392771375  0.11100361085675783  1.0000
  O   O107      1.0  0.015445482973687197  0.36454104110157043  0.14771686736580225  1.0000
  H   H637      1.0  0.9839152744423904  0.25483319223924944  0.17579171057860088  1.0000
  H   H638      1.0  0.9376997633074755  0.249650144261502  0.11791434149375443  1.0000
  H   H639      1.0  0.9204229367149841  0.3006167827093519  0.17492786924897635  1.0000
  H   H640      1.0  0.017605086297748596  0.30623175135191166  0.08163300564952229  1.0000
  H   H641      1.0  0.9515212245814687  0.350287659162765  0.08681605362726974  1.0000
  H   H642      1.0  0.9890983224201377  0.3943435669736183  0.1658575352879183  1.0000
  C   C215      1.0  0.3895924396606831  0.12093778614744044  0.16369793196385687  1.0000
  C   C216      1.0  0.41853112420310634  0.12266546880668958  0.10409288021976124  1.0000
  O   O108      1.0  0.3852732330125602  0.08724797429208203  0.06478809972184309  1.0000
  H   H643      1.0  0.34337692852576834  0.1317358027677476  0.1589468046509217  1.0000
  H   H644      1.0  0.4098927109068606  0.1520360740139251  0.19134085451184324  1.0000
  H   H645      1.0  0.3977989322921166  0.07515419567733797  0.17708747257303775  1.0000
  H   H646      1.0  0.4224184101864169  0.16801713861197975  0.09286294293464176  1.0000
  H   H647      1.0  0.4638827940083965  0.10754824553825953  0.10495672154938579  1.0000
  H   H648      1.0  0.3762028990515022  0.11445897617525613  0.03541749451460756  1.0000
  C   C217      1.0  0.3550387864757001  0.4777042552823897  0.5640883882448472  1.0000
  C   C218      1.0  0.35763031046457383  0.5390369896857345  0.5744544842003421  1.0000
  O   O109      1.0  0.41032463157167287  0.5545861336189768  0.5960505174409564  1.0000
  H   H649      1.0  0.37965826437000044  0.4660423973324579  0.5269432110709904  1.0000
  H   H650      1.0  0.3101190373352222  0.46129127001952275  0.5602011022615365  1.0000
  H   H651      1.0  0.36929216841450563  0.4530847773880893  0.6003697240890792  1.0000
  H   H652      1.0  0.350287659162765  0.5576095782726629  0.5308304970543011  1.0000
  H   H653      1.0  0.3243724192740277  0.5537222922893522  0.6020974067483285  1.0000
  H   H654      1.0  0.4358079507955978  0.5614968642559734  0.562360705585598  1.0000
  C   C219      1.0  0.8085554845286018  0.27426962215580236  0.6694770304590453  1.0000
  C   C220      1.0  0.7670911007066222  0.22243914237832796  0.6750919991016049  1.0000
  O   O110      1.0  0.7463589087956324  0.21639225307095591  0.7338332095160761  1.0000
  H   H655      1.0  0.8297195971044038  0.28377187678167276  0.6284445673018779  1.0000
  H   H656      1.0  0.8465645030320831  0.2647673675299321  0.6953922703477825  1.0000
  H   H657      1.0  0.7865275306231752  0.3122786406592837  0.6854580950570999  1.0000
  H   H658      1.0  0.7295140028679532  0.22503066636720165  0.644857552564745  1.0000
  H   H659      1.0  0.7943021025897963  0.1857258858692835  0.6638620618164854  1.0000
  H   H660      1.0  0.706622207632902  0.1995473471432767  0.7282182408735163  1.0000
  C   C221      1.0  0.3982308529569289  0.47036160398058086  0.06565194105146767  1.0000
  C   C222      1.0  0.41291615556054656  0.43710371279003474  0.12396123080112642  1.0000
  O   O111      1.0  0.41637152087904494  0.48245538259532483  0.16456177329348146  1.0000
  H   H661      1.0  0.3546068658108878  0.4885022719026969  0.06824346504034139  1.0000
  H   H662      1.0  0.3965031702976797  0.4375356334548469  0.029370605207235535  1.0000
  H   H663      1.0  0.43192066481228725  0.5010279711822532  0.052262400442286756  1.0000
  H   H664      1.0  0.37231561306819155  0.41075655223648516  0.1321677234325599  1.0000
  H   H665      1.0  0.449629412069591  0.4085969489124237  0.12050586548262815  1.0000
  H   H666      1.0  0.4353760301307856  0.4725212073046423  0.20041118847290132  1.0000
  C   C223      1.0  0.393911646308806  0.6530640451961783  0.28031651146317443  1.0000
  C   C224      1.0  0.4159396002142326  0.6029612480779529  0.24446709628375454  1.0000
  O   O112      1.0  0.3697240890793179  0.5761821668595912  0.21336880841726988  1.0000
  H   H667      1.0  0.3610856757830721  0.6392425839221851  0.3105509580000345  1.0000
  H   H668      1.0  0.37274753373300384  0.6850261743922876  0.2552651129040618  1.0000
  H   H669      1.0  0.4284652994937889  0.6746600784367928  0.30623175135191166  1.0000
  H   H670      1.0  0.4483336500751542  0.6198061540056322  0.2129368877524576  1.0000
  H   H671      1.0  0.4396952367789084  0.5718629602114683  0.2747015428206147  1.0000
  H   H672      1.0  0.3831136296884988  0.542924275669045  0.1891812511877818  1.0000
  C   C225      1.0  0.16067448731017084  0.4228503308512292  0.196955823154403  1.0000
  C   C226      1.0  0.15462759800279885  0.4146438382197957  0.13389540609180905  1.0000
  O   O113      1.0  0.1386465334047442  0.3559026278053247  0.12309738947150185  1.0000
  H   H673      1.0  0.11964202415300358  0.4228503308512292  0.21941569772464192  1.0000
  H   H674      1.0  0.18529396520447122  0.45956358736027364  0.2025707917969627  1.0000
  H   H675      1.0  0.18140667922116066  0.38440939168293564  0.21682417373576818  1.0000
  H   H676      1.0  0.12093778614744044  0.4453102054214681  0.12007394481781586  1.0000
  H   H677      1.0  0.19479621983034154  0.4228503308512292  0.11402705551044384  1.0000
  H   H678      1.0  0.09631830825314006  0.3528791831516387  0.1321677234325599  1.0000
  C   C227      1.0  0.3075275133463485  0.9061695547761786  0.7403120194882604  1.0000
  C   C228      1.0  0.318757450631468  0.8958034588206837  0.6768196817608542  1.0000
  O   O114      1.0  0.3105509580000345  0.9476339385981581  0.6431298699054957  1.0000
  H   H679      1.0  0.3105509580000345  0.8660009329486358  0.7649314973825607  1.0000
  H   H680      1.0  0.2608800815466215  0.9195590953853595  0.7407439401530728  1.0000
  H   H681      1.0  0.3377619598832086  0.933812477324165  0.7627718940584993  1.0000
  H   H682      1.0  0.3619495171126967  0.8832777595411274  0.672068554447919  1.0000
  H   H683      1.0  0.29241029007791847  0.8599540436412639  0.6621343791572363  1.0000
  H   H684      1.0  0.2695184948428673  0.953248907240718  0.6340595359444376  1.0000
  C   C229      1.0  0.5995058827594547  0.8297195971044038  0.39088820165512  1.0000
  C   C230      1.0  0.6612705378276117  0.818057739154472  0.36929216841450563  1.0000
  O   O115      1.0  0.6582470931739258  0.8133066118415369  0.3079594340111608  1.0000
  H   H685      1.0  0.5809332941725264  0.8716159015911956  0.3757709783866899  1.0000
  H   H686      1.0  0.6020974067483285  0.8292876764395914  0.4379675541196593  1.0000
  H   H687      1.0  0.5714310395466561  0.7955978645842332  0.37922634370518815  1.0000
  H   H688      1.0  0.6919369050292842  0.8521794716746428  0.3822497883588742  1.0000
  H   H689      1.0  0.6750919991016049  0.7731379900139941  0.3805221056996251  1.0000
  H   H690      1.0  0.6824346504034139  0.7787529586565539  0.30104870337416423  1.0000
  C   C231      1.0  0.10279711822532436  0.6604066964979871  0.7791848793213662  1.0000
  C   C232      1.0  0.12007394481781586  0.7148287002643354  0.747222750125257  1.0000
  O   O116      1.0  0.10927592819750868  0.762339973393687  0.7852317686287382  1.0000
  H   H691      1.0  0.08767989495689432  0.6267168846426289  0.7524057981030045  1.0000
  H   H692      1.0  0.0643561790570308  0.6694770304590453  0.8042362778804789  1.0000
  H   H693      1.0  0.13951037473436878  0.644857552564745  0.8085554845286018  1.0000
  H   H694      1.0  0.16456177329348146  0.7139648589347108  0.7385843368290113  1.0000
  H   H695      1.0  0.09545446692351547  0.7208755895717075  0.708349890292151  1.0000
  H   H696      1.0  0.06824346504034139  0.7619080527288747  0.7990532299027314  1.0000
  C   C233      1.0  0.5770460081892158  0.5614968642559734  0.034553653184982984  1.0000
  C   C234      1.0  0.6241253606537551  0.5537222922893522  0.08379260897358372  1.0000
  O   O117      1.0  0.6245572813185674  0.499300288523004  0.11143553152157011  1.0000
  H   H697      1.0  0.5861163421502739  0.5312624177191133  0.9982723173407508  1.0000
  H   H698      1.0  0.5744544842003421  0.609008137385325  0.020732191910989788  1.0000
  H   H699      1.0  0.5334220210431748  0.550266926970854  0.05312624177191133  1.0000
  H   H700      1.0  0.6655897444757346  0.5614968642559734  0.06262849639778165  1.0000
  H   H701      1.0  0.6163507886871339  0.5848205801558369  0.11532281750488069  1.0000
  H   H702      1.0  0.622397677994506  0.46863392132133164  0.08120108498471  1.0000
  C   C235      1.0  0.9899621637497623  0.4975726058637549  0.6737962371071682  1.0000
  C   C236      1.0  0.9614553998721513  0.5558818956134136  0.6906411430348474  1.0000
  O   O118      1.0  0.9061695547761786  0.5627926262504103  0.6621343791572363  1.0000
  H   H703      1.0  0.017173165632936582  0.47900001727682656  0.708349890292151  1.0000
  H   H704      1.0  0.012422038320001105  0.4988683678581918  0.6331956946148131  1.0000
  H   H705      1.0  0.9519531452462812  0.4660423973324579  0.6699089511238575  1.0000
  H   H706      1.0  0.9571361932240287  0.5597691815967243  0.7398800988234482  1.0000
  H   H707      1.0  0.990826005079387  0.5887078661391475  0.6746600784367928  1.0000
  H   H708      1.0  0.9083291581002402  0.6016654860835161  0.6431298699054957  1.0000
  C   C237      1.0  0.0440559078108533  0.63449145660925  0.3550387864757001  1.0000
  C   C238      1.0  0.9930892693630035  0.6534959658609906  0.38872859833105855  1.0000
  O   O119      1.0  0.9961127140166894  0.6353552979388746  0.44574212608628044  1.0000
  H   H709      1.0  0.043192066481228725  0.595618596776144  0.3291235465869629  1.0000
  H   H710      1.0  0.07688187833658712  0.6241253606537551  0.3852732330125602  1.0000
  H   H711      1.0  0.05528584509597277  0.6681812684646083  0.3256681812684646  1.0000
  H   H712      1.0  0.9917935073685665  0.6992795563310931  0.3874328363366217  1.0000
  H   H713      1.0  0.9550802508595221  0.6336276152796254  0.3697240890793179  1.0000
  H   H714      1.0  0.01425338193880548  0.5990739620946425  0.44790172941034184  1.0000
  C   C239      1.0  0.478136175947202  0.9126483647483629  0.5308304970543011  1.0000
  C   C240      1.0  0.46301895267877197  0.8949396174910591  0.4694977626509562  1.0000
  O   O120      1.0  0.4677700799917071  0.8327430417580899  0.46517855600283337  1.0000
  H   H715      1.0  0.44099099877334524  0.9070333961058032  0.5614968642559734  1.0000
  H   H716      1.0  0.4854788272490109  0.9601596378777144  0.5260793697413658  1.0000
  H   H717      1.0  0.5170090357803079  0.8958034588206837  0.5485392443116047  1.0000
  H   H718      1.0  0.41809920353829405  0.9083291581002402  0.45783590470102453  1.0000
  H   H719      1.0  0.4919576372211952  0.9173994920612982  0.4358079507955978  1.0000
  H   H720      1.0  0.44228676076778217  0.8133066118415369  0.49454916121006887  1.0000
  C   C241      1.0  0.3839774710181234  0.8223769458025949  0.8539071543338919  1.0000
  C   C242      1.0  0.39347972564399364  0.7796167999861785  0.9005545861336189  1.0000
  O   O121      1.0  0.40600542492354996  0.8120108498470999  0.9528169865759056  1.0000
  H   H721      1.0  0.368428327084881  0.8012128332267928  0.8154662151655983  1.0000
  H   H722      1.0  0.42457801351047836  0.8452687410376462  0.8418133757191479  1.0000
  H   H723      1.0  0.34726421450907896  0.8474283443617077  0.8703201395967589  1.0000
  H   H724      1.0  0.3528791831516387  0.7541334807622536  0.9061695547761786  1.0000
  H   H725      1.0  0.4276014581641644  0.7502461947789429  0.8850054422003765  1.0000
  H   H726      1.0  0.4487655707399664  0.8189215804840967  0.954976589899967  1.0000
  C   C243      1.0  0.6340595359444376  0.019436429916552925  0.6081442960557004  1.0000
  C   C244      1.0  0.6146231060278847  0.0047511273129351595  0.6707727924534821  1.0000
  O   O122      1.0  0.6565194105146765  0.020732191910989788  0.7122371762754618  1.0000
  H   H727      1.0  0.5964824381057687  0.009502254625870319  0.5796375321780896  1.0000
  H   H728      1.0  0.6690451097942329  0.9904977453741297  0.5934589934520828  1.0000
  H   H729      1.0  0.6422660285758712  0.06737962371071682  0.6016654860835161  1.0000
  H   H730      1.0  0.5766140875244035  0.030666367201672394  0.6785473644201032  1.0000
  H   H731      1.0  0.6081442960557004  0.9572398541835836  0.672068554447919  1.0000
  H   H732      1.0  0.6906411430348474  0.005183047977747447  0.6940965083533456  1.0000
  C   C245      1.0  0.3619495171126967  0.9580000345536531  0.9545446692351549  1.0000
  C   C246      1.0  0.3230766572795909  0.9264698260223562  0.9994644183756327  1.0000
  O   O123      1.0  0.30666367201672395  0.8733435842504448  0.9752768611461445  1.0000
  H   H733      1.0  0.3921839636495568  0.9299251913408545  0.9351082393186019  1.0000
  H   H734      1.0  0.3895924396606831  0.9899621637497623  0.9757087818109569  1.0000
  H   H735      1.0  0.33473851522952264  0.9791641471294551  0.9199910160501718  1.0000
  H   H736      1.0  0.3464003731794544  0.9212867780446087  0.04049688153279973  1.0000
  H   H737      1.0  0.2807484321279867  0.9519531452462812  0.0076709110070662945  1.0000
  H   H738      1.0  0.3390577218776455  0.8474283443617077  0.9800279884590798  1.0000
  C   C247      1.0  0.20645807778027328  0.9299251913408545  0.8742074255800695  1.0000
  C   C248      1.0  0.1421018987232425  0.9109206820891138  0.8793904735578169  1.0000
  O   O124      1.0  0.10798016620307181  0.95929579654809  0.8763670289041308  1.0000
  H   H739      1.0  0.21898377705982966  0.962319241201776  0.9074653167706154  1.0000
  H   H740      1.0  0.21596033240614362  0.9515212245814687  0.8305834384340284  1.0000
  H   H741      1.0  0.23410100032825967  0.8940757761614345  0.8806862355522537  1.0000
  H   H742      1.0  0.1317358027677476  0.8789585528930046  0.8448368203728338  1.0000
  H   H743      1.0  0.13475924742143364  0.8845735215355643  0.9191271747205473  1.0000
  H   H744      1.0  0.11877818282337899  0.9770045438053938  0.9139441267427998  1.0000
  C   C249      1.0  0.5822290561669632  0.7023030009847789  0.5295347350598641  1.0000
  C   C250      1.0  0.5817971355021508  0.6798431264145401  0.46647431799727024  1.0000
  O   O125      1.0  0.5286708937302396  0.6863219363867245  0.43883139544928385  1.0000
  H   H745      1.0  0.5541542129541644  0.7411758608178849  0.5351497037024239  1.0000
  H   H746      1.0  0.6236934399889428  0.7105094936162125  0.5494030856412294  1.0000
  H   H747      1.0  0.5597691815967243  0.6690451097942329  0.5571776576078505  1.0000
  H   H748      1.0  0.6115996613741987  0.7079179696273388  0.44401444342703134  1.0000
  H   H749      1.0  0.5973462794353933  0.6336276152796254  0.4669062386620825  1.0000
  H   H750      1.0  0.5299666557246765  0.7269224788790796  0.43148874414747496  1.0000
  C   C251      1.0  0.5096663844784989  0.646585235223994  0.8349026450821513  1.0000
  C   C252      1.0  0.5062110191600006  0.590867469463209  0.8681605362726973  1.0000
  O   O126      1.0  0.449629412069591  0.5856844214854615  0.8927800141669978  1.0000
  H   H751      1.0  0.5221920837580553  0.6798431264145401  0.8642732502893867  1.0000
  H   H752      1.0  0.4729531279694545  0.6534959658609906  0.8072597225341649  1.0000
  H   H753      1.0  0.5468115616523557  0.6431298699054957  0.8076916431989772  1.0000
  H   H754      1.0  0.5118259878025605  0.5545861336189768  0.837494169071025  1.0000
  H   H755      1.0  0.5403327516801713  0.5912993901280212  0.8996907448039945  1.0000
  H   H756      1.0  0.45135709472884017  0.6128954233686357  0.9256059846927316  1.0000
  C   C253      1.0  0.11748242082894214  0.3455365318498298  0.8219450251377827  1.0000
  C   C254      1.0  0.08422452963839602  0.3930478049791814  0.7943021025897963  1.0000
  O   O127      1.0  0.11964202415300358  0.44401444342703134  0.7895509752768611  1.0000
  H   H757      1.0  0.1252569927955633  0.35115150049238947  0.8685924569375096  1.0000
  H   H758      1.0  0.16024256664535858  0.3468322938442667  0.8038043572156666  1.0000
  H   H759      1.0  0.0950225462587032  0.3036402273630379  0.8163300564952228  1.0000
  H   H760      1.0  0.08033724365508542  0.3800901850348128  0.7506781154437552  1.0000
  H   H761      1.0  0.042760145816416434  0.4034139009346763  0.8167619771600352  1.0000
  H   H762      1.0  0.0984779115772015  0.4759765726231406  0.8085554845286018  1.0000
  C   C255      1.0  0.9346763186537896  0.49498108187488116  0.5342858623727994  1.0000
  C   C256      1.0  0.899258824139182  0.5321262590487379  0.49325339921563194  1.0000
  O   O128      1.0  0.8491560270209567  0.5001641298526286  0.47554465195832823  1.0000
  H   H763      1.0  0.9070333961058032  0.4759765726231406  0.5675437535633455  1.0000
  H   H764      1.0  0.9640469238610252  0.5204644010988062  0.5567457369430382  1.0000
  H   H765      1.0  0.954976589899967  0.4604274286898982  0.5118259878025605  1.0000
  H   H766      1.0  0.8880288868540627  0.5740225635355297  0.5170090357803079  1.0000
  H   H767      1.0  0.9256059846927316  0.5446519583282942  0.455676301376963  1.0000
  H   H768      1.0  0.8603859643060763  0.4599955080250859  0.4742488899638914  1.0000
