@<TRIPOS>MOLECULE
*****
   59    58     1     0     0
SMALL
bcc


@<TRIPOS>ATOM
      1 C           -0.8780     0.6840     2.5060 c3         1 UNL       0.113900
      2 C1          -1.0700    -0.8010     2.8350 c3         1 UNL       0.081900
      3 O           -0.4450    -1.6980     1.9140 os         1 UNL      -0.421100
      4 C2           0.9720    -1.5700     1.7780 c3         1 UNL       0.093400
      5 C3           1.7750    -1.9760     3.0240 c3         1 UNL       0.088400
      6 O1           1.5770    -3.3190     3.4750 os         1 UNL      -0.403100
      7 C4           1.8440    -4.3710     2.5420 c3         1 UNL       0.089900
      8 C5           3.3110    -4.4590     2.0930 c3         1 UNL       0.088400
      9 O2           3.5990    -5.5270     1.1880 os         1 UNL      -0.401100
     10 C6           2.8750    -5.5930    -0.0430 c3         1 UNL       0.088400
     11 C7           2.9290    -4.3340    -0.9160 c3         1 UNL       0.088400
     12 O3           2.5090    -4.5090    -2.2690 os         1 UNL      -0.401600
     13 C8           1.1730    -4.9360    -2.5290 c3         1 UNL       0.088400
     14 C9           0.0690    -3.9730    -2.0830 c3         1 UNL       0.088400
     15 O4          -1.2290    -4.2700    -2.6150 os         1 UNL      -0.401100
     16 C10         -1.7720    -5.5690    -2.3650 c3         1 UNL       0.088400
     17 C11         -1.9340    -5.9090    -0.8820 c3         1 UNL       0.089900
     18 O5          -2.5580    -7.1650    -0.6170 os         1 UNL      -0.403100
     19 C12         -1.9100    -8.3380    -1.1100 c3         1 UNL       0.088400
     20 C13         -0.4740    -8.5370    -0.6120 c3         1 UNL       0.093400
     21 O6           0.0960    -9.7910    -0.9970 os         1 UNL      -0.421100
     22 C14          0.3830    -9.8840    -2.4010 c3         1 UNL       0.081900
     23 C15          1.2430   -11.1230    -2.6450 c3         1 UNL       0.113900
     24 O7           0.5360   -12.2960    -2.2510 oh         1 UNL      -0.599300
     25 O8          -1.2430     0.9870     1.1630 oh         1 UNL      -0.599300
     26 H            0.1640     0.9880     2.6400 h1         1 UNL       0.050700
     27 H1          -1.4900     1.2990     3.1740 h1         1 UNL       0.050700
     28 H2          -0.7470    -1.0210     3.8570 h1         1 UNL       0.050700
     29 H3          -2.1410    -1.0300     2.7820 h1         1 UNL       0.050700
     30 H4           1.2460    -2.2060     0.9400 h1         1 UNL       0.058450
     31 H5           1.2320    -0.5520     1.4740 h1         1 UNL       0.058450
     32 H6           2.8450    -1.8120     2.8460 h1         1 UNL       0.055950
     33 H7           1.5040    -1.3310     3.8640 h1         1 UNL       0.055950
     34 H8           1.5820    -5.3090     3.0410 h1         1 UNL       0.057700
     35 H9           1.1600    -4.2900     1.6960 h1         1 UNL       0.057700
     36 H10          3.6710    -3.5190     1.6650 h1         1 UNL       0.055950
     37 H11          3.9290    -4.6260     2.9810 h1         1 UNL       0.055950
     38 H12          3.3110    -6.4260    -0.6060 h1         1 UNL       0.054950
     39 H13          1.8390    -5.8860     0.1640 h1         1 UNL       0.054950
     40 H14          2.3710    -3.5120    -0.4650 h1         1 UNL       0.055200
     41 H15          3.9720    -3.9940    -0.9620 h1         1 UNL       0.055200
     42 H16          1.0970    -5.0570    -3.6170 h1         1 UNL       0.055200
     43 H17          1.0210    -5.9360    -2.1140 h1         1 UNL       0.055200
     44 H18          0.0110    -3.9020    -0.9940 h1         1 UNL       0.054950
     45 H19          0.3180    -2.9630    -2.4330 h1         1 UNL       0.054950
     46 H20         -2.7620    -5.5980    -2.8390 h1         1 UNL       0.055950
     47 H21         -1.1760    -6.3190    -2.8950 h1         1 UNL       0.055950
     48 H22         -0.9790    -5.8600    -0.3500 h1         1 UNL       0.057700
     49 H23         -2.5630    -5.1390    -0.4170 h1         1 UNL       0.057700
     50 H24         -2.5100    -9.1930    -0.7790 h1         1 UNL       0.055950
     51 H25         -1.9650    -8.3500    -2.2040 h1         1 UNL       0.055950
     52 H26          0.1800    -7.7260    -0.9420 h1         1 UNL       0.058450
     53 H27         -0.4690    -8.4990     0.4830 h1         1 UNL       0.058450
     54 H28         -0.5590    -9.9790    -2.9440 h1         1 UNL       0.050700
     55 H29          0.9220    -8.9910    -2.7330 h1         1 UNL       0.050700
     56 H30          1.4910   -11.2130    -3.7050 h1         1 UNL       0.050700
     57 H31          2.1700   -11.0820    -2.0650 h1         1 UNL       0.050700
     58 H32          0.2530   -12.1330    -1.3300 ho         1 UNL       0.413000
     59 H33         -2.0110     0.4360     0.9310 ho         1 UNL       0.413000
@<TRIPOS>BOND
     1     1     2 1   
     2     2     3 1   
     3     3     4 1   
     4     4     5 1   
     5     5     6 1   
     6     6     7 1   
     7     7     8 1   
     8     8     9 1   
     9     9    10 1   
    10    10    11 1   
    11    11    12 1   
    12    12    13 1   
    13    13    14 1   
    14    14    15 1   
    15    15    16 1   
    16    16    17 1   
    17    17    18 1   
    18    18    19 1   
    19    19    20 1   
    20    20    21 1   
    21    21    22 1   
    22    22    23 1   
    23    23    24 1   
    24     1    25 1   
    25     1    26 1   
    26     1    27 1   
    27     2    28 1   
    28     2    29 1   
    29     4    30 1   
    30     4    31 1   
    31     5    32 1   
    32     5    33 1   
    33     7    34 1   
    34     7    35 1   
    35     8    36 1   
    36     8    37 1   
    37    10    38 1   
    38    10    39 1   
    39    11    40 1   
    40    11    41 1   
    41    13    42 1   
    42    13    43 1   
    43    14    44 1   
    44    14    45 1   
    45    16    46 1   
    46    16    47 1   
    47    17    48 1   
    48    17    49 1   
    49    19    50 1   
    50    19    51 1   
    51    20    52 1   
    52    20    53 1   
    53    22    54 1   
    54    22    55 1   
    55    23    56 1   
    56    23    57 1   
    57    24    58 1   
    58    25    59 1   
@<TRIPOS>SUBSTRUCTURE
     1 UNL         1 TEMP              0 ****  ****    0 ROOT
