@<TRIPOS>MOLECULE
*****
   43    42     1     0     0
SMALL
bcc


@<TRIPOS>ATOM
      1 O            2.6590    -0.5440     6.2570 oh         1 UNL      -0.598800
      2 C            1.7810     0.5040     6.6670 c3         1 UNL       0.099400
      3 C1           0.6480     0.7310     5.6560 c3         1 UNL       0.098100
      4 C2          -0.3710     1.7410     6.1660 c3         1 UNL      -0.124100
      5 O1           1.1400     0.9310     4.3220 os         1 UNL      -0.424600
      6 C3           1.4440     2.2380     3.8400 c3         1 UNL       0.092400
      7 C4           2.9200     2.6890     3.9640 c3         1 UNL       0.115100
      8 C5           3.9310     1.6980     3.3820 c3         1 UNL      -0.122100
      9 O2           3.1580     4.0280     3.4580 os         1 UNL      -0.422600
     10 C6           2.8160     4.2660     2.0820 c3         1 UNL       0.100400
     11 C7           2.9920     5.7680     1.7120 c3         1 UNL       0.134100
     12 C8           4.4650     6.1750     1.6120 c3         1 UNL      -0.093100
     13 O3           2.4110     6.1050     0.4430 os         1 UNL      -0.415600
     14 C9           0.9900     6.0190     0.3310 c3         1 UNL       0.093400
     15 C10          0.2210     6.9730     1.2570 c3         1 UNL       0.106100
     16 C11          0.5770     8.4410     1.0220 c3         1 UNL      -0.125100
     17 O4          -1.1850     6.7650     1.1070 oh         1 UNL      -0.596800
     18 H           -1.5110     7.3440     0.3960 ho         1 UNL       0.397000
     19 H1           2.1270    -1.2000     5.7720 ho         1 UNL       0.409000
     20 H2           1.3650     0.2210     7.6400 h1         1 UNL       0.052700
     21 H3           2.3810     1.4050     6.8020 h1         1 UNL       0.052700
     22 H4           0.1170    -0.2300     5.5820 h1         1 UNL       0.086700
     23 H5           0.0560     2.7470     6.2620 hc         1 UNL       0.048367
     24 H6          -1.2330     1.8000     5.4920 hc         1 UNL       0.048367
     25 H7          -0.7410     1.4470     7.1540 hc         1 UNL       0.048367
     26 H8           1.1890     2.1920     2.7740 h1         1 UNL       0.054700
     27 H9           0.7770     3.0000     4.2550 h1         1 UNL       0.054700
     28 H10          3.1400     2.7470     5.0340 h1         1 UNL       0.077700
     29 H11          4.0090     1.7640     2.2930 hc         1 UNL       0.048367
     30 H12          4.9300     1.9210     3.7750 hc         1 UNL       0.048367
     31 H13          3.6930     0.6640     3.6490 hc         1 UNL       0.048367
     32 H14          3.4120     3.6470     1.4110 h1         1 UNL       0.038200
     33 H15          1.7680     4.0070     1.9410 h1         1 UNL       0.038200
     34 H16          2.5500     6.3820     2.5050 h1         1 UNL       0.057700
     35 H17          4.8370     6.0910     0.5840 hc         1 UNL       0.049033
     36 H18          4.5690     7.2340     1.8810 hc         1 UNL       0.049033
     37 H19          5.1140     5.5990     2.2750 hc         1 UNL       0.049033
     38 H20          0.7440     6.2610    -0.7110 h1         1 UNL       0.052700
     39 H21          0.6560     4.9860     0.4610 h1         1 UNL       0.052700
     40 H22          0.4480     6.7210     2.2970 h1         1 UNL       0.080700
     41 H23         -0.2610     9.0150     0.6140 hc         1 UNL       0.046700
     42 H24          0.8540     8.9080     1.9740 hc         1 UNL       0.046700
     43 H25          1.4340     8.5590     0.3520 hc         1 UNL       0.046700
@<TRIPOS>BOND
     1     1     2 1   
     2     2     3 1   
     3     3     4 1   
     4     3     5 1   
     5     5     6 1   
     6     6     7 1   
     7     7     8 1   
     8     7     9 1   
     9     9    10 1   
    10    10    11 1   
    11    11    12 1   
    12    11    13 1   
    13    13    14 1   
    14    14    15 1   
    15    15    16 1   
    16    15    17 1   
    17    17    18 1   
    18     1    19 1   
    19     2    20 1   
    20     2    21 1   
    21     3    22 1   
    22     4    23 1   
    23     4    24 1   
    24     4    25 1   
    25     6    26 1   
    26     6    27 1   
    27     7    28 1   
    28     8    29 1   
    29     8    30 1   
    30     8    31 1   
    31    10    32 1   
    32    10    33 1   
    33    11    34 1   
    34    12    35 1   
    35    12    36 1   
    36    12    37 1   
    37    14    38 1   
    38    14    39 1   
    39    15    40 1   
    40    16    41 1   
    41    16    42 1   
    42    16    43 1   
@<TRIPOS>SUBSTRUCTURE
     1 UNL         1 TEMP              0 ****  ****    0 ROOT
