@<TRIPOS>MOLECULE
*****
 123 122 0 0 0
SMALL
GASTEIGER

@<TRIPOS>ATOM
      1 O          -1.7128   -6.5510   -8.8788 O.3     1  UNL1       -0.3925
      2 C          -0.6036   -7.2140   -9.4736 C.3     1  UNL1        0.0701
      3 C          -0.6613   -8.7394   -9.2650 C.3     1  UNL1        0.0790
      4 C           0.4463   -9.3630  -10.1298 C.3     1  UNL1       -0.0365
      5 O          -0.4181   -9.2083   -7.9301 O.3     1  UNL1       -0.3720
      6 C          -1.1176   -8.6475   -6.8111 C.3     1  UNL1        0.0740
      7 C          -2.6207   -8.9952   -6.6634 C.3     1  UNL1        0.0793
      8 C          -2.8001  -10.5241   -6.6477 C.3     1  UNL1       -0.0365
      9 O          -3.2548   -8.5772   -5.4411 O.3     1  UNL1       -0.3720
     10 C          -3.1638   -7.2352   -4.9642 C.3     1  UNL1        0.0740
     11 C          -4.0290   -6.1747   -5.6849 C.3     1  UNL1        0.0793
     12 C          -5.5278   -6.5198   -5.5822 C.3     1  UNL1       -0.0365
     13 O          -3.9409   -4.8769   -5.0752 O.3     1  UNL1       -0.3720
     14 C          -2.7782   -4.0686   -5.2401 C.3     1  UNL1        0.0740
     15 C          -2.4728   -3.5474   -6.6597 C.3     1  UNL1        0.0793
     16 C          -3.7163   -2.9839   -7.3562 C.3     1  UNL1       -0.0365
     17 O          -1.5396   -2.4502   -6.5857 O.3     1  UNL1       -0.3720
     18 C          -0.1583   -2.7623   -6.7866 C.3     1  UNL1        0.0740
     19 C           0.7236   -2.4386   -5.5530 C.3     1  UNL1        0.0793
     20 C           0.5189   -0.9865   -5.1226 C.3     1  UNL1       -0.0365
     21 O           0.3884   -3.3412   -4.4805 O.3     1  UNL1       -0.3720
     22 C           1.4979   -3.9086   -3.7603 C.3     1  UNL1        0.0740
     23 C           1.2067   -5.3952   -3.3763 C.3     1  UNL1        0.0793
     24 C           0.9275   -6.1683   -4.6683 C.3     1  UNL1       -0.0365
     25 O           2.3676   -5.9423   -2.7159 O.3     1  UNL1       -0.3720
     26 C           2.1601   -6.8787   -1.6302 C.3     1  UNL1        0.0740
     27 C           3.3923   -6.7707   -0.6723 C.3     1  UNL1        0.0793
     28 C           3.2942   -5.4094    0.0289 C.3     1  UNL1       -0.0365
     29 O           3.4501   -7.6902    0.4188 O.3     1  UNL1       -0.3720
     30 C           4.2297   -8.8877    0.4094 C.3     1  UNL1        0.0740
     31 C           5.6288   -9.0230   -0.2423 C.3     1  UNL1        0.0793
     32 C           6.6686   -8.0192    0.2599 C.3     1  UNL1       -0.0365
     33 O           6.1822  -10.3040    0.1342 O.3     1  UNL1       -0.3720
     34 C           6.0082  -11.3926   -0.7702 C.3     1  UNL1        0.0740
     35 C           5.0809  -12.5159   -0.2352 C.3     1  UNL1        0.0793
     36 C           5.3141  -12.7678    1.2591 C.3     1  UNL1       -0.0365
     37 O           3.6704  -12.2931   -0.3821 O.3     1  UNL1       -0.3720
     38 C           3.1645  -12.0217   -1.6878 C.3     1  UNL1        0.0740
     39 C           3.2168  -13.1933   -2.6921 C.3     1  UNL1        0.0793
     40 C           2.2243  -14.3072   -2.3509 C.3     1  UNL1       -0.0365
     41 O           2.9266  -12.7296   -4.0344 O.3     1  UNL1       -0.3720
     42 C           4.0829  -12.1462   -4.6353 C.3     1  UNL1        0.0740
     43 C           3.9651  -11.8730   -6.1468 C.3     1  UNL1        0.0793
     44 C           2.8570  -10.8727   -6.4850 C.3     1  UNL1       -0.0365
     45 O           5.2019  -11.3065   -6.6269 O.3     1  UNL1       -0.3720
     46 C           6.2800  -12.2436   -6.6811 C.3     1  UNL1        0.0738
     47 C           7.5601  -11.5631   -7.1736 C.3     1  UNL1        0.0757
     48 C           7.9905  -10.3954   -6.2912 C.3     1  UNL1       -0.0368
     49 O           8.6064  -12.5385   -7.2036 O.3     1  UNL1       -0.3898
     50 H           9.4379  -12.0745   -7.4015 H       1  UNL1        0.2099
     51 H          -2.4600   -6.6387   -9.4964 H       1  UNL1        0.2095
     52 H          -0.6120   -6.9705  -10.5432 H       1  UNL1        0.0583
     53 H           0.3168   -6.7967   -9.0461 H       1  UNL1        0.0583
     54 H          -1.6340   -9.1230   -9.5944 H       1  UNL1        0.0616
     55 H           1.4376   -9.0788   -9.7522 H       1  UNL1        0.0255
     56 H           0.4063  -10.4554  -10.1053 H       1  UNL1        0.0255
     57 H           0.3841   -9.0412  -11.1786 H       1  UNL1        0.0255
     58 H          -0.6049   -9.0505   -5.9305 H       1  UNL1        0.0586
     59 H          -0.9508   -7.5688   -6.7688 H       1  UNL1        0.0586
     60 H          -3.1856   -8.5948   -7.5080 H       1  UNL1        0.0616
     61 H          -2.3059  -10.9631   -5.7701 H       1  UNL1        0.0255
     62 H          -3.8618  -10.7858   -6.5517 H       1  UNL1        0.0255
     63 H          -2.4048  -11.0100   -7.5442 H       1  UNL1        0.0255
     64 H          -3.5258   -7.2882   -3.9285 H       1  UNL1        0.0586
     65 H          -2.1219   -6.9306   -4.8756 H       1  UNL1        0.0586
     66 H          -3.7558   -6.1141   -6.7416 H       1  UNL1        0.0616
     67 H          -6.1161   -5.6739   -5.1976 H       1  UNL1        0.0255
     68 H          -5.9346   -6.7724   -6.5652 H       1  UNL1        0.0255
     69 H          -5.7219   -7.3698   -4.9199 H       1  UNL1        0.0255
     70 H          -2.9493   -3.1903   -4.6053 H       1  UNL1        0.0586
     71 H          -1.9128   -4.5748   -4.8093 H       1  UNL1        0.0586
     72 H          -2.0794   -4.3625   -7.2773 H       1  UNL1        0.0616
     73 H          -3.7856   -1.8953   -7.2462 H       1  UNL1        0.0255
     74 H          -3.6550   -3.1805   -8.4334 H       1  UNL1        0.0255
     75 H          -4.6490   -3.4298   -7.0030 H       1  UNL1        0.0255
     76 H          -0.0186   -3.8014   -7.0951 H       1  UNL1        0.0586
     77 H           0.1733   -2.1237   -7.6175 H       1  UNL1        0.0586
     78 H           1.7701   -2.5769   -5.8515 H       1  UNL1        0.0616
     79 H          -0.5046   -0.8016   -4.7929 H       1  UNL1        0.0255
     80 H           1.1747   -0.7346   -4.2797 H       1  UNL1        0.0255
     81 H           0.7506   -0.2933   -5.9450 H       1  UNL1        0.0255
     82 H           2.4287   -3.8645   -4.3392 H       1  UNL1        0.0586
     83 H           1.6639   -3.3209   -2.8497 H       1  UNL1        0.0586
     84 H           0.3220   -5.4307   -2.7290 H       1  UNL1        0.0616
     85 H           1.8282   -6.2081   -5.2905 H       1  UNL1        0.0255
     86 H           0.6279   -7.1990   -4.4654 H       1  UNL1        0.0255
     87 H           0.1372   -5.6969   -5.2628 H       1  UNL1        0.0255
     88 H           1.2343   -6.6432   -1.0860 H       1  UNL1        0.0586
     89 H           2.0576   -7.8954   -2.0246 H       1  UNL1        0.0586
     90 H           4.3299   -6.8002   -1.2461 H       1  UNL1        0.0616
     91 H           3.9811   -5.3172    0.8595 H       1  UNL1        0.0255
     92 H           3.4656   -4.6015   -0.6773 H       1  UNL1        0.0255
     93 H           2.2786   -5.2688    0.4450 H       1  UNL1        0.0255
     94 H           4.3711   -9.1322    1.4726 H       1  UNL1        0.0586
     95 H           3.5911   -9.6881    0.0335 H       1  UNL1        0.0586
     96 H           5.5648   -8.9291   -1.3319 H       1  UNL1        0.0616
     97 H           7.6231   -8.1898   -0.2634 H       1  UNL1        0.0255
     98 H           6.3699   -6.9854    0.0894 H       1  UNL1        0.0255
     99 H           6.8855   -8.1611    1.3268 H       1  UNL1        0.0255
    100 H           7.0080  -11.8376   -0.8647 H       1  UNL1        0.0586
    101 H           5.7359  -11.0509   -1.7707 H       1  UNL1        0.0586
    102 H           5.3288  -13.4386   -0.7730 H       1  UNL1        0.0616
    103 H           4.6767  -12.1237    1.8761 H       1  UNL1        0.0255
    104 H           5.0455  -13.8005    1.5115 H       1  UNL1        0.0255
    105 H           6.3581  -12.6191    1.5522 H       1  UNL1        0.0255
    106 H           2.1164  -11.7251   -1.5585 H       1  UNL1        0.0586
    107 H           3.6467  -11.1249   -2.0818 H       1  UNL1        0.0586
    108 H           4.2111  -13.6541   -2.6872 H       1  UNL1        0.0616
    109 H           1.6520  -14.6271   -3.2286 H       1  UNL1        0.0255
    110 H           2.7629  -15.1843   -1.9727 H       1  UNL1        0.0255
    111 H           1.5157  -14.0122   -1.5705 H       1  UNL1        0.0255
    112 H           4.3403  -11.2120   -4.1261 H       1  UNL1        0.0586
    113 H           4.9158  -12.8348   -4.4744 H       1  UNL1        0.0586
    114 H           3.7571  -12.7992   -6.6969 H       1  UNL1        0.0616
    115 H           3.1221  -10.2637   -7.3584 H       1  UNL1        0.0255
    116 H           1.9176  -11.3896   -6.7085 H       1  UNL1        0.0255
    117 H           2.6656  -10.1805   -5.6584 H       1  UNL1        0.0255
    118 H           6.4831  -12.6764   -5.6977 H       1  UNL1        0.0585
    119 H           6.0149  -13.0691   -7.3525 H       1  UNL1        0.0585
    120 H           7.3974  -11.2006   -8.1941 H       1  UNL1        0.0613
    121 H           8.6245  -10.7280   -5.4641 H       1  UNL1        0.0255
    122 H           8.5902   -9.6944   -6.8839 H       1  UNL1        0.0255
    123 H           7.1418   -9.8372   -5.8865 H       1  UNL1        0.0255
@<TRIPOS>BOND
     1     1     2    1
     2     2     3    1
     3     3     4    1
     4     3     5    1
     5     5     6    1
     6     6     7    1
     7     7     8    1
     8     7     9    1
     9     9    10    1
    10    10    11    1
    11    11    12    1
    12    11    13    1
    13    13    14    1
    14    14    15    1
    15    15    16    1
    16    15    17    1
    17    17    18    1
    18    18    19    1
    19    19    20    1
    20    19    21    1
    21    21    22    1
    22    22    23    1
    23    23    24    1
    24    23    25    1
    25    25    26    1
    26    26    27    1
    27    27    28    1
    28    27    29    1
    29    29    30    1
    30    30    31    1
    31    31    32    1
    32    31    33    1
    33    33    34    1
    34    34    35    1
    35    35    36    1
    36    35    37    1
    37    37    38    1
    38    38    39    1
    39    39    40    1
    40    39    41    1
    41    41    42    1
    42    42    43    1
    43    43    44    1
    44    43    45    1
    45    45    46    1
    46    46    47    1
    47    47    48    1
    48    47    49    1
    49    49    50    1
    50     1    51    1
    51     2    52    1
    52     2    53    1
    53     3    54    1
    54     4    55    1
    55     4    56    1
    56     4    57    1
    57     6    58    1
    58     6    59    1
    59     7    60    1
    60     8    61    1
    61     8    62    1
    62     8    63    1
    63    10    64    1
    64    10    65    1
    65    11    66    1
    66    12    67    1
    67    12    68    1
    68    12    69    1
    69    14    70    1
    70    14    71    1
    71    15    72    1
    72    16    73    1
    73    16    74    1
    74    16    75    1
    75    18    76    1
    76    18    77    1
    77    19    78    1
    78    20    79    1
    79    20    80    1
    80    20    81    1
    81    22    82    1
    82    22    83    1
    83    23    84    1
    84    24    85    1
    85    24    86    1
    86    24    87    1
    87    26    88    1
    88    26    89    1
    89    27    90    1
    90    28    91    1
    91    28    92    1
    92    28    93    1
    93    30    94    1
    94    30    95    1
    95    31    96    1
    96    32    97    1
    97    32    98    1
    98    32    99    1
    99    34   100    1
   100    34   101    1
   101    35   102    1
   102    36   103    1
   103    36   104    1
   104    36   105    1
   105    38   106    1
   106    38   107    1
   107    39   108    1
   108    40   109    1
   109    40   110    1
   110    40   111    1
   111    42   112    1
   112    42   113    1
   113    43   114    1
   114    44   115    1
   115    44   116    1
   116    44   117    1
   117    46   118    1
   118    46   119    1
   119    47   120    1
   120    48   121    1
   121    48   122    1
   122    48   123    1
