@<TRIPOS>MOLECULE
*****
  123   122     1     0     0
SMALL
bcc


@<TRIPOS>ATOM
      1 O           -1.7130    -6.5510    -8.8790 oh         1 UNL      -0.611800
      2 C           -0.6040    -7.2140    -9.4740 c3         1 UNL       0.092400
      3 C1          -0.6610    -8.7390    -9.2650 c3         1 UNL       0.103100
      4 C2           0.4460    -9.3630   -10.1300 c3         1 UNL      -0.093100
      5 O1          -0.4180    -9.2080    -7.9300 os         1 UNL      -0.409600
      6 C3          -1.1180    -8.6480    -6.8110 c3         1 UNL       0.090400
      7 C4          -2.6210    -8.9950    -6.6630 c3         1 UNL       0.109100
      8 C5          -2.8000   -10.5240    -6.6480 c3         1 UNL      -0.090100
      9 O2          -3.2550    -8.5770    -5.4410 os         1 UNL      -0.412600
     10 C6          -3.1640    -7.2350    -4.9640 c3         1 UNL       0.098400
     11 C7          -4.0290    -6.1750    -5.6850 c3         1 UNL       0.101100
     12 C8          -5.5280    -6.5200    -5.5820 c3         1 UNL      -0.093100
     13 O3          -3.9410    -4.8770    -5.0750 os         1 UNL      -0.416600
     14 C9          -2.7780    -4.0690    -5.2400 c3         1 UNL       0.092400
     15 C10         -2.4730    -3.5470    -6.6600 c3         1 UNL       0.114100
     16 C11         -3.7160    -2.9840    -7.3560 c3         1 UNL      -0.092100
     17 O4          -1.5400    -2.4500    -6.5860 os         1 UNL      -0.417600
     18 C12         -0.1580    -2.7620    -6.7870 c3         1 UNL       0.125400
     19 C13          0.7240    -2.4390    -5.5530 c3         1 UNL       0.124100
     20 C14          0.5190    -0.9870    -5.1230 c3         1 UNL      -0.115100
     21 O5           0.3880    -3.3410    -4.4810 os         1 UNL      -0.438600
     22 C15          1.4980    -3.9090    -3.7600 c3         1 UNL       0.126400
     23 C16          1.2070    -5.3950    -3.3760 c3         1 UNL       0.135100
     24 C17          0.9270    -6.1680    -4.6680 c3         1 UNL      -0.125100
     25 O6           2.3680    -5.9420    -2.7160 os         1 UNL      -0.434600
     26 C18          2.1600    -6.8790    -1.6300 c3         1 UNL       0.104400
     27 C19          3.3920    -6.7710    -0.6720 c3         1 UNL       0.136100
     28 C20          3.2940    -5.4090     0.0290 c3         1 UNL      -0.093100
     29 O7           3.4500    -7.6900     0.4190 os         1 UNL      -0.418600
     30 C21          4.2300    -8.8880     0.4090 c3         1 UNL       0.087400
     31 C22          5.6290    -9.0230    -0.2420 c3         1 UNL       0.116100
     32 C23          6.6690    -8.0190     0.2600 c3         1 UNL      -0.090100
     33 O8           6.1820   -10.3040     0.1340 os         1 UNL      -0.415600
     34 C24          6.0080   -11.3930    -0.7700 c3         1 UNL       0.108400
     35 C25          5.0810   -12.5160    -0.2350 c3         1 UNL       0.122100
     36 C26          5.3140   -12.7680     1.2590 c3         1 UNL      -0.090100
     37 O9           3.6700   -12.2930    -0.3820 os         1 UNL      -0.417600
     38 C27          3.1640   -12.0220    -1.6880 c3         1 UNL       0.094400
     39 C28          3.2170   -13.1930    -2.6920 c3         1 UNL       0.113100
     40 C29          2.2240   -14.3070    -2.3510 c3         1 UNL      -0.093100
     41 O10          2.9270   -12.7300    -4.0340 os         1 UNL      -0.423600
     42 C30          4.0830   -12.1460    -4.6350 c3         1 UNL       0.100400
     43 C31          3.9650   -11.8730    -6.1470 c3         1 UNL       0.143100
     44 C32          2.8570   -10.8730    -6.4850 c3         1 UNL      -0.094100
     45 O11          5.2020   -11.3060    -6.6270 os         1 UNL      -0.428600
     46 C33          6.2800   -12.2440    -6.6810 c3         1 UNL       0.130400
     47 C34          7.5600   -11.5630    -7.1740 c3         1 UNL       0.138100
     48 C35          7.9900   -10.3950    -6.2910 c3         1 UNL      -0.130100
     49 O12          8.6060   -12.5390    -7.2040 oh         1 UNL      -0.604800
     50 H            9.4380   -12.0750    -7.4020 ho         1 UNL       0.404000
     51 H1          -2.4600    -6.6390    -9.4960 ho         1 UNL       0.402000
     52 H2          -0.6120    -6.9710   -10.5430 h1         1 UNL       0.059700
     53 H3           0.3170    -6.7970    -9.0460 h1         1 UNL       0.059700
     54 H4          -1.6340    -9.1230    -9.5940 h1         1 UNL       0.038700
     55 H5           1.4380    -9.0790    -9.7520 hc         1 UNL       0.048367
     56 H6           0.4060   -10.4550   -10.1050 hc         1 UNL       0.048367
     57 H7           0.3840    -9.0410   -11.1790 hc         1 UNL       0.048367
     58 H8          -0.6050    -9.0500    -5.9310 h1         1 UNL       0.065700
     59 H9          -0.9510    -7.5690    -6.7690 h1         1 UNL       0.065700
     60 H10         -3.1860    -8.5950    -7.5080 h1         1 UNL       0.030700
     61 H11         -2.3060   -10.9630    -5.7700 hc         1 UNL       0.048367
     62 H12         -3.8620   -10.7860    -6.5520 hc         1 UNL       0.048367
     63 H13         -2.4050   -11.0100    -7.5440 hc         1 UNL       0.048367
     64 H14         -3.5260    -7.2880    -3.9290 h1         1 UNL       0.056200
     65 H15         -2.1220    -6.9310    -4.8760 h1         1 UNL       0.056200
     66 H16         -3.7560    -6.1140    -6.7420 h1         1 UNL       0.049700
     67 H17         -6.1160    -5.6740    -5.1980 hc         1 UNL       0.047033
     68 H18         -5.9350    -6.7720    -6.5650 hc         1 UNL       0.047033
     69 H19         -5.7220    -7.3700    -4.9200 hc         1 UNL       0.047033
     70 H20         -2.9490    -3.1900    -4.6050 h1         1 UNL       0.066700
     71 H21         -1.9130    -4.5750    -4.8090 h1         1 UNL       0.066700
     72 H22         -2.0790    -4.3620    -7.2770 h1         1 UNL       0.050700
     73 H23         -3.7860    -1.8950    -7.2460 hc         1 UNL       0.046033
     74 H24         -3.6550    -3.1800    -8.4330 hc         1 UNL       0.046033
     75 H25         -4.6490    -3.4300    -7.0030 hc         1 UNL       0.046033
     76 H26         -0.0190    -3.8010    -7.0950 h1         1 UNL       0.057200
     77 H27          0.1730    -2.1240    -7.6170 h1         1 UNL       0.057200
     78 H28          1.7700    -2.5770    -5.8510 h1         1 UNL       0.034700
     79 H29         -0.5050    -0.8020    -4.7930 hc         1 UNL       0.048033
     80 H30          1.1750    -0.7350    -4.2800 hc         1 UNL       0.048033
     81 H31          0.7510    -0.2930    -5.9450 hc         1 UNL       0.048033
     82 H32          2.4290    -3.8650    -4.3390 h1         1 UNL       0.044700
     83 H33          1.6640    -3.3210    -2.8500 h1         1 UNL       0.044700
     84 H34          0.3220    -5.4310    -2.7290 h1         1 UNL       0.060700
     85 H35          1.8280    -6.2080    -5.2900 hc         1 UNL       0.047700
     86 H36          0.6280    -7.1990    -4.4650 hc         1 UNL       0.047700
     87 H37          0.1370    -5.6970    -5.2630 hc         1 UNL       0.047700
     88 H38          1.2340    -6.6430    -1.0860 h1         1 UNL       0.039700
     89 H39          2.0580    -7.8950    -2.0250 h1         1 UNL       0.039700
     90 H40          4.3300    -6.8000    -1.2460 h1         1 UNL       0.048700
     91 H41          3.9810    -5.3170     0.8600 hc         1 UNL       0.047367
     92 H42          3.4660    -4.6010    -0.6770 hc         1 UNL       0.047367
     93 H43          2.2790    -5.2690     0.4450 hc         1 UNL       0.047367
     94 H44          4.3710    -9.1320     1.4730 h1         1 UNL       0.069200
     95 H45          3.5910    -9.6880     0.0340 h1         1 UNL       0.069200
     96 H46          5.5650    -8.9290    -1.3320 h1         1 UNL       0.039700
     97 H47          7.6230    -8.1900    -0.2630 hc         1 UNL       0.047700
     98 H48          6.3700    -6.9850     0.0890 hc         1 UNL       0.047700
     99 H49          6.8860    -8.1610     1.3270 hc         1 UNL       0.047700
    100 H50          7.0080   -11.8380    -0.8650 h1         1 UNL       0.042700
    101 H51          5.7360   -11.0510    -1.7710 h1         1 UNL       0.042700
    102 H52          5.3290   -13.4390    -0.7730 h1         1 UNL       0.037700
    103 H53          4.6770   -12.1240     1.8760 hc         1 UNL       0.049367
    104 H54          5.0450   -13.8000     1.5120 hc         1 UNL       0.049367
    105 H55          6.3580   -12.6190     1.5520 hc         1 UNL       0.049367
    106 H56          2.1160   -11.7250    -1.5580 h1         1 UNL       0.057200
    107 H57          3.6470   -11.1250    -2.0820 h1         1 UNL       0.057200
    108 H58          4.2110   -13.6540    -2.6870 h1         1 UNL       0.044700
    109 H59          1.6520   -14.6270    -3.2290 hc         1 UNL       0.049367
    110 H60          2.7630   -15.1840    -1.9730 hc         1 UNL       0.049367
    111 H61          1.5160   -14.0120    -1.5710 hc         1 UNL       0.049367
    112 H62          4.3400   -11.2120    -4.1260 h1         1 UNL       0.033700
    113 H63          4.9160   -12.8350    -4.4740 h1         1 UNL       0.033700
    114 H64          3.7570   -12.7990    -6.6970 h1         1 UNL       0.060700
    115 H65          3.1220   -10.2640    -7.3580 hc         1 UNL       0.048367
    116 H66          1.9180   -11.3900    -6.7080 hc         1 UNL       0.048367
    117 H67          2.6660   -10.1810    -5.6580 hc         1 UNL       0.048367
    118 H68          6.4830   -12.6760    -5.6980 h1         1 UNL       0.042700
    119 H69          6.0150   -13.0690    -7.3530 h1         1 UNL       0.042700
    120 H70          7.3970   -11.2010    -8.1940 h1         1 UNL       0.048700
    121 H71          8.6240   -10.7280    -5.4640 hc         1 UNL       0.046367
    122 H72          8.5900    -9.6940    -6.8840 hc         1 UNL       0.046367
    123 H73          7.1420    -9.8370    -5.8860 hc         1 UNL       0.046367
@<TRIPOS>BOND
     1     1     2 1   
     2     2     3 1   
     3     3     4 1   
     4     3     5 1   
     5     5     6 1   
     6     6     7 1   
     7     7     8 1   
     8     7     9 1   
     9     9    10 1   
    10    10    11 1   
    11    11    12 1   
    12    11    13 1   
    13    13    14 1   
    14    14    15 1   
    15    15    16 1   
    16    15    17 1   
    17    17    18 1   
    18    18    19 1   
    19    19    20 1   
    20    19    21 1   
    21    21    22 1   
    22    22    23 1   
    23    23    24 1   
    24    23    25 1   
    25    25    26 1   
    26    26    27 1   
    27    27    28 1   
    28    27    29 1   
    29    29    30 1   
    30    30    31 1   
    31    31    32 1   
    32    31    33 1   
    33    33    34 1   
    34    34    35 1   
    35    35    36 1   
    36    35    37 1   
    37    37    38 1   
    38    38    39 1   
    39    39    40 1   
    40    39    41 1   
    41    41    42 1   
    42    42    43 1   
    43    43    44 1   
    44    43    45 1   
    45    45    46 1   
    46    46    47 1   
    47    47    48 1   
    48    47    49 1   
    49    49    50 1   
    50     1    51 1   
    51     2    52 1   
    52     2    53 1   
    53     3    54 1   
    54     4    55 1   
    55     4    56 1   
    56     4    57 1   
    57     6    58 1   
    58     6    59 1   
    59     7    60 1   
    60     8    61 1   
    61     8    62 1   
    62     8    63 1   
    63    10    64 1   
    64    10    65 1   
    65    11    66 1   
    66    12    67 1   
    67    12    68 1   
    68    12    69 1   
    69    14    70 1   
    70    14    71 1   
    71    15    72 1   
    72    16    73 1   
    73    16    74 1   
    74    16    75 1   
    75    18    76 1   
    76    18    77 1   
    77    19    78 1   
    78    20    79 1   
    79    20    80 1   
    80    20    81 1   
    81    22    82 1   
    82    22    83 1   
    83    23    84 1   
    84    24    85 1   
    85    24    86 1   
    86    24    87 1   
    87    26    88 1   
    88    26    89 1   
    89    27    90 1   
    90    28    91 1   
    91    28    92 1   
    92    28    93 1   
    93    30    94 1   
    94    30    95 1   
    95    31    96 1   
    96    32    97 1   
    97    32    98 1   
    98    32    99 1   
    99    34   100 1   
   100    34   101 1   
   101    35   102 1   
   102    36   103 1   
   103    36   104 1   
   104    36   105 1   
   105    38   106 1   
   106    38   107 1   
   107    39   108 1   
   108    40   109 1   
   109    40   110 1   
   110    40   111 1   
   111    42   112 1   
   112    42   113 1   
   113    43   114 1   
   114    44   115 1   
   115    44   116 1   
   116    44   117 1   
   117    46   118 1   
   118    46   119 1   
   119    47   120 1   
   120    48   121 1   
   121    48   122 1   
   122    48   123 1   
@<TRIPOS>SUBSTRUCTURE
     1 UNL         1 TEMP              0 ****  ****    0 ROOT
