@<TRIPOS>MOLECULE
*****
   33    32     1     0     0
SMALL
bcc


@<TRIPOS>ATOM
      1 O           -0.0950     1.6590    -0.3590 oh         1 UNL      -0.598800
      2 C            1.2520     1.2560    -0.5900 c3         1 UNL       0.106400
      3 C1           1.3620     0.1750    -1.6850 c3         1 UNL       0.099100
      4 C2           0.5290    -1.0490    -1.2970 c3         1 UNL      -0.101100
      5 O1           0.8780     0.5950    -2.9650 os         1 UNL      -0.422600
      6 C3           1.5030     1.7050    -3.6070 c3         1 UNL       0.100400
      7 C4           2.9040     1.4920    -4.2400 c3         1 UNL       0.117100
      8 C5           4.0220     1.3470    -3.2160 c3         1 UNL      -0.097100
      9 O2           2.9910     0.3750    -5.1440 os         1 UNL      -0.428600
     10 C6           2.3020     0.5990    -6.3820 c3         1 UNL       0.089400
     11 C7           2.5640    -0.5450    -7.3760 c3         1 UNL       0.143100
     12 C8           4.0160    -0.6530    -7.8140 c3         1 UNL      -0.128100
     13 O3           2.1730    -1.7890    -6.7910 oh         1 UNL      -0.597800
     14 H            2.6080    -1.8210    -5.9220 ho         1 UNL       0.412000
     15 H1          -0.5130     1.7520    -1.2410 ho         1 UNL       0.412000
     16 H2           1.8190     2.1530    -0.8490 h1         1 UNL       0.043200
     17 H3           1.6530     0.8770     0.3580 h1         1 UNL       0.043200
     18 H4           2.4030    -0.1440    -1.7780 h1         1 UNL       0.056700
     19 H5          -0.5450    -0.8130    -1.2770 hc         1 UNL       0.054367
     20 H6           0.6570    -1.8430    -2.0380 hc         1 UNL       0.054367
     21 H7           0.8220    -1.4390    -0.3170 hc         1 UNL       0.054367
     22 H8           0.8150     1.9820    -4.4120 h1         1 UNL       0.050700
     23 H9           1.5190     2.5700    -2.9340 h1         1 UNL       0.050700
     24 H10          3.1300     2.4060    -4.8070 h1         1 UNL       0.039700
     25 H11          4.2560     0.2990    -3.0020 hc         1 UNL       0.046700
     26 H12          4.9440     1.7870    -3.6190 hc         1 UNL       0.046700
     27 H13          3.8040     1.8750    -2.2830 hc         1 UNL       0.046700
     28 H14          1.2270     0.6430    -6.1760 h1         1 UNL       0.048700
     29 H15          2.6270     1.5480    -6.8230 h1         1 UNL       0.048700
     30 H16          1.9400    -0.3880    -8.2630 h1         1 UNL       0.074700
     31 H17          4.6670    -0.9600    -6.9870 hc         1 UNL       0.045367
     32 H18          4.1150    -1.4250    -8.5870 hc         1 UNL       0.045367
     33 H19          4.3840     0.2910    -8.2270 hc         1 UNL       0.045367
@<TRIPOS>BOND
     1     1     2 1   
     2     2     3 1   
     3     3     4 1   
     4     3     5 1   
     5     5     6 1   
     6     6     7 1   
     7     7     8 1   
     8     7     9 1   
     9     9    10 1   
    10    10    11 1   
    11    11    12 1   
    12    11    13 1   
    13    13    14 1   
    14     1    15 1   
    15     2    16 1   
    16     2    17 1   
    17     3    18 1   
    18     4    19 1   
    19     4    20 1   
    20     4    21 1   
    21     6    22 1   
    22     6    23 1   
    23     7    24 1   
    24     8    25 1   
    25     8    26 1   
    26     8    27 1   
    27    10    28 1   
    28    10    29 1   
    29    11    30 1   
    30    12    31 1   
    31    12    32 1   
    32    12    33 1   
@<TRIPOS>SUBSTRUCTURE
     1 UNL         1 TEMP              0 ****  ****    0 ROOT
