@<TRIPOS>MOLECULE
*****
   23    22     1     0     0
SMALL
bcc


@<TRIPOS>ATOM
      1 C           -2.3820    -2.0210     1.2380 c3         1 UNL      -0.127600
      2 C1          -0.9270    -1.7000     0.9240 c3         1 UNL       0.108600
      3 O           -0.1020    -2.7670     1.4040 oh         1 UNL      -0.598300
      4 C2          -0.6490    -1.5240    -0.5780 c3         1 UNL       0.108400
      5 O1          -1.4110    -0.5340    -1.2640 os         1 UNL      -0.414600
      6 C3          -1.3010     0.8050    -0.8010 c3         1 UNL       0.108400
      7 C4           0.1000     1.4440    -0.8280 c3         1 UNL       0.108600
      8 C5           0.7730     1.4170    -2.1920 c3         1 UNL      -0.127600
      9 O2          -0.0050     2.8050    -0.3980 oh         1 UNL      -0.598300
     10 H           -2.7100    -2.9290     0.7210 hc         1 UNL       0.047033
     11 H1          -3.0480    -1.1980     0.9670 hc         1 UNL       0.047033
     12 H2          -2.5040    -2.2170     2.3140 hc         1 UNL       0.047033
     13 H3          -0.6380    -0.7950     1.4650 h1         1 UNL       0.057200
     14 H4          -0.3320    -2.9260     2.3370 ho         1 UNL       0.400500
     15 H5           0.4200    -1.3440    -0.7430 h1         1 UNL       0.058450
     16 H6          -0.8540    -2.4780    -1.0840 h1         1 UNL       0.058450
     17 H7          -1.9670     1.4050    -1.4340 h1         1 UNL       0.058450
     18 H8          -1.7280     0.8850     0.2060 h1         1 UNL       0.058450
     19 H9           0.7480     0.9310    -0.1090 h1         1 UNL       0.057200
     20 H10          0.1680     1.9370    -2.9430 hc         1 UNL       0.047033
     21 H11          1.7320     1.9500    -2.1470 hc         1 UNL       0.047033
     22 H12          0.9630     0.3980    -2.5360 hc         1 UNL       0.047033
     23 H13         -0.4680     3.3030    -1.0990 ho         1 UNL       0.400500
@<TRIPOS>BOND
     1     1     2 1   
     2     2     3 1   
     3     2     4 1   
     4     4     5 1   
     5     5     6 1   
     6     6     7 1   
     7     7     8 1   
     8     7     9 1   
     9     1    10 1   
    10     1    11 1   
    11     1    12 1   
    12     2    13 1   
    13     3    14 1   
    14     4    15 1   
    15     4    16 1   
    16     6    17 1   
    17     6    18 1   
    18     7    19 1   
    19     8    20 1   
    20     8    21 1   
    21     8    22 1   
    22     9    23 1   
@<TRIPOS>SUBSTRUCTURE
     1 UNL         1 TEMP              0 ****  ****    0 ROOT
