@<TRIPOS>MOLECULE
*****
 23 22 0 0 0
SMALL
GASTEIGER

@<TRIPOS>ATOM
      1 C          -2.3823   -2.0209    1.2385 C.3     1  UNL1       -0.0368
      2 C          -0.9275   -1.7004    0.9245 C.3     1  UNL1        0.0757
      3 O          -0.1023   -2.7669    1.4043 O.3     1  UNL1       -0.3898
      4 C          -0.6495   -1.5243   -0.5781 C.3     1  UNL1        0.0734
      5 O          -1.4114   -0.5336   -1.2635 O.3     1  UNL1       -0.3747
      6 C          -1.3013    0.8054   -0.8007 C.3     1  UNL1        0.0734
      7 C           0.0996    1.4439   -0.8278 C.3     1  UNL1        0.0757
      8 C           0.7733    1.4175   -2.1924 C.3     1  UNL1       -0.0368
      9 O          -0.0046    2.8055   -0.3983 O.3     1  UNL1       -0.3898
     10 H          -2.7097   -2.9291    0.7213 H       1  UNL1        0.0255
     11 H          -3.0483   -1.1985    0.9674 H       1  UNL1        0.0255
     12 H          -2.5044   -2.2174    2.3136 H       1  UNL1        0.0255
     13 H          -0.6379   -0.7946    1.4646 H       1  UNL1        0.0613
     14 H          -0.3319   -2.9259    2.3366 H       1  UNL1        0.2099
     15 H           0.4196   -1.3440   -0.7426 H       1  UNL1        0.0585
     16 H          -0.8535   -2.4778   -1.0840 H       1  UNL1        0.0585
     17 H          -1.9670    1.4052   -1.4340 H       1  UNL1        0.0585
     18 H          -1.7280    0.8849    0.2061 H       1  UNL1        0.0585
     19 H           0.7480    0.9314   -0.1092 H       1  UNL1        0.0613
     20 H           0.1677    1.9374   -2.9427 H       1  UNL1        0.0255
     21 H           1.7315    1.9501   -2.1473 H       1  UNL1        0.0255
     22 H           0.9627    0.3982   -2.5364 H       1  UNL1        0.0255
     23 H          -0.4684    3.3028   -1.0985 H       1  UNL1        0.2099
@<TRIPOS>BOND
     1     1     2    1
     2     2     3    1
     3     2     4    1
     4     4     5    1
     5     5     6    1
     6     6     7    1
     7     7     8    1
     8     7     9    1
     9     1    10    1
    10     1    11    1
    11     1    12    1
    12     2    13    1
    13     3    14    1
    14     4    15    1
    15     4    16    1
    16     6    17    1
    17     6    18    1
    18     7    19    1
    19     8    20    1
    20     8    21    1
    21     8    22    1
    22     9    23    1
