@<TRIPOS>MOLECULE
*****
 173 172 0 0 0
SMALL
GASTEIGER

@<TRIPOS>ATOM
      1 O           2.1047   -5.1203    5.5252 O.3     1  UNL1       -0.3925
      2 C           1.3287   -6.3076    5.4030 C.3     1  UNL1        0.0701
      3 C           1.2030   -7.0479    6.7488 C.3     1  UNL1        0.0790
      4 C           0.1701   -8.1705    6.5448 C.3     1  UNL1       -0.0365
      5 O           2.3849   -7.6911    7.2506 O.3     1  UNL1       -0.3720
      6 C           3.6558   -7.0213    7.2877 C.3     1  UNL1        0.0740
      7 C           3.8821   -5.9546    8.3905 C.3     1  UNL1        0.0793
      8 C           3.5660   -6.5538    9.7734 C.3     1  UNL1       -0.0365
      9 O           5.2383   -5.4728    8.5342 O.3     1  UNL1       -0.3720
     10 C           6.0432   -5.0650    7.4241 C.3     1  UNL1        0.0740
     11 C           5.7102   -3.6919    6.7942 C.3     1  UNL1        0.0793
     12 C           5.9652   -2.6045    7.8561 C.3     1  UNL1       -0.0365
     13 O           6.5340   -3.3499    5.6496 O.3     1  UNL1       -0.3720
     14 C           6.3209   -3.8989    4.3175 C.3     1  UNL1        0.0740
     15 C           4.9569   -3.5577    3.6092 C.3     1  UNL1        0.0793
     16 C           4.8041   -2.0195    3.7031 C.3     1  UNL1       -0.0365
     17 O           4.7439   -3.7836    2.1846 O.3     1  UNL1       -0.3720
     18 C           4.7571   -4.9762    1.3827 C.3     1  UNL1        0.0740
     19 C           3.5019   -5.9556    1.3268 C.3     1  UNL1        0.0793
     20 C           2.1715   -5.3524    1.6563 C.3     1  UNL1       -0.0365
     21 O           3.3626   -6.8835    0.2018 O.3     1  UNL1       -0.3720
     22 C           2.6715   -6.6590   -1.0613 C.3     1  UNL1        0.0740
     23 C           1.0872   -6.4915   -1.2950 C.3     1  UNL1        0.0793
     24 C           0.2771   -7.6404   -0.6870 C.3     1  UNL1       -0.0365
     25 O           0.5856   -5.1688   -0.9318 O.3     1  UNL1       -0.3720
     26 C          -0.2758   -4.4204   -1.8674 C.3     1  UNL1        0.0740
     27 C           0.0890   -2.8360   -1.8992 C.3     1  UNL1        0.0793
     28 C           1.5361   -2.8308   -2.4238 C.3     1  UNL1       -0.0365
     29 O          -0.8241   -1.9778   -2.7061 O.3     1  UNL1       -0.3720
     30 C          -0.8666   -0.4870   -2.4405 C.3     1  UNL1        0.0740
     31 C          -2.1952    0.3503   -3.1014 C.3     1  UNL1        0.0793
     32 C          -3.3929   -0.4934   -2.6892 C.3     1  UNL1       -0.0365
     33 O          -2.3836    1.8080   -2.7046 O.3     1  UNL1       -0.3720
     34 C          -3.3660    2.6832   -3.4831 C.3     1  UNL1        0.0740
     35 C          -3.4302    4.3620   -3.0991 C.3     1  UNL1        0.0793
     36 C          -1.9684    4.7827   -2.9739 C.3     1  UNL1       -0.0365
     37 O          -4.2038    5.2892   -4.0414 O.3     1  UNL1       -0.3720
     38 C          -4.5433    6.7279   -3.6095 C.3     1  UNL1        0.0740
     39 C          -5.6231    7.6455   -4.6005 C.3     1  UNL1        0.0793
     40 C          -6.7816    6.6988   -4.9026 C.3     1  UNL1       -0.0365
     41 O          -6.1309    8.9826   -4.0562 O.3     1  UNL1       -0.3720
     42 C          -6.8606    9.9765   -4.9738 C.3     1  UNL1        0.0740
     43 C          -7.1935   11.5404   -4.3465 C.3     1  UNL1        0.0793
     44 C          -5.8951   12.0085   -3.6937 C.3     1  UNL1       -0.0365
     45 O          -7.7147   12.6118   -5.3002 O.3     1  UNL1       -0.3720
     46 C          -8.2155   13.9256   -4.7213 C.3     1  UNL1        0.0740
     47 C          -8.9033   15.0698   -5.7481 C.3     1  UNL1        0.0793
     48 C          -9.8984   14.3431   -6.6507 C.3     1  UNL1       -0.0365
     49 O          -9.5835   16.1949   -5.0302 O.3     1  UNL1       -0.3720
     50 C          -9.8139   17.5243   -5.6873 C.3     1  UNL1        0.0740
     51 C         -10.1414   18.7254   -4.6125 C.3     1  UNL1        0.0793
     52 C          -8.9660   18.6366   -3.6179 C.3     1  UNL1       -0.0365
     53 O         -10.0390   20.0893   -5.0650 O.3     1  UNL1       -0.3720
     54 C         -10.9838   21.1593   -5.2058 C.3     1  UNL1        0.0740
     55 C         -12.3228   21.5280   -4.4619 C.3     1  UNL1        0.0793
     56 C         -13.4114   20.4961   -4.7310 C.3     1  UNL1       -0.0365
     57 O         -12.1754   21.7906   -3.0553 O.3     1  UNL1       -0.3720
     58 C         -12.6476   23.0786   -2.5478 C.3     1  UNL1        0.0740
     59 C         -11.5341   23.6835   -1.6281 C.3     1  UNL1        0.0793
     60 C         -10.5645   24.4826   -2.4885 C.3     1  UNL1       -0.0365
     61 O         -11.9405   24.6146   -0.6212 O.3     1  UNL1       -0.3720
     62 C         -12.5931   24.1159    0.5431 C.3     1  UNL1        0.0740
     63 C         -11.8953   23.0115    1.3682 C.3     1  UNL1        0.0793
     64 C         -10.4704   23.3908    1.7897 C.3     1  UNL1       -0.0365
     65 O         -12.5815   22.6807    2.5901 O.3     1  UNL1       -0.3720
     66 C         -13.9735   22.3694    2.5045 C.3     1  UNL1        0.0738
     67 C         -14.3146   21.1354    1.6517 C.3     1  UNL1        0.0757
     68 C         -15.7739   20.7240    1.8421 C.3     1  UNL1       -0.0368
     69 O         -14.1265   21.4333    0.2651 O.3     1  UNL1       -0.3898
     70 H         -14.3749   20.6432   -0.2461 H       1  UNL1        0.2099
     71 H           1.4869   -4.3995    5.7423 H       1  UNL1        0.2095
     72 H           0.3345   -6.0113    5.0375 H       1  UNL1        0.0583
     73 H           1.7829   -6.9457    4.6398 H       1  UNL1        0.0583
     74 H           0.8380   -6.3563    7.5171 H       1  UNL1        0.0616
     75 H           0.5647   -8.9389    5.8649 H       1  UNL1        0.0255
     76 H          -0.0602   -8.6773    7.4868 H       1  UNL1        0.0255
     77 H          -0.7684   -7.7978    6.1177 H       1  UNL1        0.0255
     78 H           4.3786   -7.8254    7.4779 H       1  UNL1        0.0586
     79 H           3.9116   -6.6407    6.2999 H       1  UNL1        0.0586
     80 H           3.2227   -5.0961    8.2306 H       1  UNL1        0.0616
     81 H           4.2665   -7.3673   10.0118 H       1  UNL1        0.0255
     82 H           3.7083   -5.8050   10.5639 H       1  UNL1        0.0255
     83 H           2.5488   -6.9439    9.8461 H       1  UNL1        0.0255
     84 H           7.0580   -4.9823    7.8471 H       1  UNL1        0.0586
     85 H           6.1166   -5.8619    6.6854 H       1  UNL1        0.0586
     86 H           4.6574   -3.6499    6.5066 H       1  UNL1        0.0616
     87 H           6.7745   -1.9059    7.5725 H       1  UNL1        0.0255
     88 H           5.0633   -1.9792    7.9983 H       1  UNL1        0.0255
     89 H           6.2028   -2.9982    8.8528 H       1  UNL1        0.0255
     90 H           7.1208   -3.4419    3.7227 H       1  UNL1        0.0586
     91 H           6.5406   -4.9673    4.3302 H       1  UNL1        0.0586
     92 H           4.1566   -4.0265    4.1789 H       1  UNL1        0.0616
     93 H           5.2739   -1.5193    2.8767 H       1  UNL1        0.0255
     94 H           3.7506   -1.7338    3.6243 H       1  UNL1        0.0255
     95 H           5.1929   -1.5987    4.6330 H       1  UNL1        0.0255
     96 H           4.8661   -4.5970    0.3588 H       1  UNL1        0.0586
     97 H           5.6961   -5.5201    1.5724 H       1  UNL1        0.0586
     98 H           3.7294   -6.6491    2.1434 H       1  UNL1        0.0616
     99 H           1.8728   -4.6378    0.8867 H       1  UNL1        0.0255
    100 H           1.4137   -6.1551    1.6888 H       1  UNL1        0.0255
    101 H           2.1771   -4.8498    2.6073 H       1  UNL1        0.0255
    102 H           3.2129   -5.9108   -1.6394 H       1  UNL1        0.0586
    103 H           2.8748   -7.6178   -1.5758 H       1  UNL1        0.0586
    104 H           0.9544   -6.5881   -2.3890 H       1  UNL1        0.0616
    105 H           0.3946   -7.7144    0.3953 H       1  UNL1        0.0255
    106 H          -0.7948   -7.5334   -0.8898 H       1  UNL1        0.0255
    107 H           0.5872   -8.6069   -1.1144 H       1  UNL1        0.0255
    108 H          -0.2209   -4.8447   -2.8727 H       1  UNL1        0.0586
    109 H          -1.3175   -4.5388   -1.5230 H       1  UNL1        0.0586
    110 H           0.0790   -2.4834   -0.8640 H       1  UNL1        0.0616
    111 H           1.5744   -3.1582   -3.4701 H       1  UNL1        0.0255
    112 H           1.9964   -1.8437   -2.3587 H       1  UNL1        0.0255
    113 H           2.1691   -3.5158   -1.8534 H       1  UNL1        0.0255
    114 H          -0.8712   -0.3429   -1.3547 H       1  UNL1        0.0586
    115 H           0.0534   -0.0473   -2.8459 H       1  UNL1        0.0586
    116 H          -2.0717    0.3341   -4.1987 H       1  UNL1        0.0616
    117 H          -3.5147   -0.4884   -1.5951 H       1  UNL1        0.0255
    118 H          -4.3280   -0.1509   -3.1253 H       1  UNL1        0.0255
    119 H          -3.2569   -1.5445   -2.9853 H       1  UNL1        0.0255
    120 H          -3.1104    2.5939   -4.5440 H       1  UNL1        0.0586
    121 H          -4.3730    2.2796   -3.3319 H       1  UNL1        0.0586
    122 H          -3.9228    4.4433   -2.1234 H       1  UNL1        0.0616
    123 H          -1.4568    4.6731   -3.9363 H       1  UNL1        0.0255
    124 H          -1.8550    5.8201   -2.6489 H       1  UNL1        0.0255
    125 H          -1.4527    4.1461   -2.2484 H       1  UNL1        0.0255
    126 H          -4.9824    6.6795   -2.6080 H       1  UNL1        0.0586
    127 H          -3.6081    7.2982   -3.5559 H       1  UNL1        0.0586
    128 H          -5.0842    7.8773   -5.5265 H       1  UNL1        0.0616
    129 H          -7.3941    6.5408   -4.0063 H       1  UNL1        0.0255
    130 H          -7.4294    7.0743   -5.6931 H       1  UNL1        0.0255
    131 H          -6.3995    5.7211   -5.2239 H       1  UNL1        0.0255
    132 H          -6.2591   10.1057   -5.8793 H       1  UNL1        0.0586
    133 H          -7.8262    9.5381   -5.2566 H       1  UNL1        0.0586
    134 H          -7.9706   11.4135   -3.5829 H       1  UNL1        0.0616
    135 H          -5.1617   12.2895   -4.4524 H       1  UNL1        0.0255
    136 H          -6.0556   12.8737   -3.0439 H       1  UNL1        0.0255
    137 H          -5.4691   11.2118   -3.0723 H       1  UNL1        0.0255
    138 H          -8.9612   13.6944   -3.9536 H       1  UNL1        0.0586
    139 H          -7.3726   14.4316   -4.2347 H       1  UNL1        0.0586
    140 H          -8.1015   15.5022   -6.3593 H       1  UNL1        0.0616
    141 H         -10.8261   14.1210   -6.1142 H       1  UNL1        0.0255
    142 H         -10.1654   14.9431   -7.5269 H       1  UNL1        0.0255
    143 H          -9.4755   13.4010   -7.0160 H       1  UNL1        0.0255
    144 H          -8.9194   17.8038   -6.2598 H       1  UNL1        0.0586
    145 H         -10.6535   17.4531   -6.3927 H       1  UNL1        0.0586
    146 H         -11.0902   18.5411   -4.0946 H       1  UNL1        0.0616
    147 H          -8.0656   19.0403   -4.0856 H       1  UNL1        0.0255
    148 H          -9.1563   19.2554   -2.7293 H       1  UNL1        0.0255
    149 H          -8.7488   17.6258   -3.3035 H       1  UNL1        0.0255
    150 H         -11.2133   21.1858   -6.2801 H       1  UNL1        0.0586
    151 H         -10.3670   22.0554   -5.0347 H       1  UNL1        0.0586
    152 H         -12.6613   22.4519   -4.9493 H       1  UNL1        0.0616
    153 H         -13.3392   19.6762   -4.0265 H       1  UNL1        0.0255
    154 H         -14.4098   20.9412   -4.5847 H       1  UNL1        0.0255
    155 H         -13.3659   20.1378   -5.7663 H       1  UNL1        0.0255
    156 H         -12.8961   23.7808   -3.3552 H       1  UNL1        0.0586
    157 H         -13.5750   22.9214   -1.9851 H       1  UNL1        0.0586
    158 H         -10.9766   22.8629   -1.1658 H       1  UNL1        0.0616
    159 H          -9.7277   24.8314   -1.8727 H       1  UNL1        0.0255
    160 H         -11.0483   25.3842   -2.8870 H       1  UNL1        0.0255
    161 H         -10.1677   23.8962   -3.3217 H       1  UNL1        0.0255
    162 H         -12.7239   24.9892    1.2135 H       1  UNL1        0.0586
    163 H         -13.6056   23.8361    0.2629 H       1  UNL1        0.0586
    164 H         -11.8263   22.0966    0.7747 H       1  UNL1        0.0616
    165 H         -10.3147   23.2680    2.8740 H       1  UNL1        0.0255
    166 H          -9.7351   22.7625    1.2874 H       1  UNL1        0.0255
    167 H         -10.2235   24.4359    1.5494 H       1  UNL1        0.0255
    168 H         -14.2885   22.1847    3.5368 H       1  UNL1        0.0585
    169 H         -14.5175   23.2556    2.1644 H       1  UNL1        0.0585
    170 H         -13.6397   20.3099    1.9042 H       1  UNL1        0.0613
    171 H         -16.3084   20.6504    0.8891 H       1  UNL1        0.0255
    172 H         -15.8280   19.7489    2.3353 H       1  UNL1        0.0255
    173 H         -16.3197   21.4320    2.4744 H       1  UNL1        0.0255
@<TRIPOS>BOND
     1     1     2    1
     2     2     3    1
     3     3     4    1
     4     3     5    1
     5     5     6    1
     6     6     7    1
     7     7     8    1
     8     7     9    1
     9     9    10    1
    10    10    11    1
    11    11    12    1
    12    11    13    1
    13    13    14    1
    14    14    15    1
    15    15    16    1
    16    15    17    1
    17    17    18    1
    18    18    19    1
    19    19    20    1
    20    19    21    1
    21    21    22    1
    22    22    23    1
    23    23    24    1
    24    23    25    1
    25    25    26    1
    26    26    27    1
    27    27    28    1
    28    27    29    1
    29    29    30    1
    30    30    31    1
    31    31    32    1
    32    31    33    1
    33    33    34    1
    34    34    35    1
    35    35    36    1
    36    35    37    1
    37    37    38    1
    38    38    39    1
    39    39    40    1
    40    39    41    1
    41    41    42    1
    42    42    43    1
    43    43    44    1
    44    43    45    1
    45    45    46    1
    46    46    47    1
    47    47    48    1
    48    47    49    1
    49    49    50    1
    50    50    51    1
    51    51    52    1
    52    51    53    1
    53    53    54    1
    54    54    55    1
    55    55    56    1
    56    55    57    1
    57    57    58    1
    58    58    59    1
    59    59    60    1
    60    59    61    1
    61    61    62    1
    62    62    63    1
    63    63    64    1
    64    63    65    1
    65    65    66    1
    66    66    67    1
    67    67    68    1
    68    67    69    1
    69    69    70    1
    70     1    71    1
    71     2    72    1
    72     2    73    1
    73     3    74    1
    74     4    75    1
    75     4    76    1
    76     4    77    1
    77     6    78    1
    78     6    79    1
    79     7    80    1
    80     8    81    1
    81     8    82    1
    82     8    83    1
    83    10    84    1
    84    10    85    1
    85    11    86    1
    86    12    87    1
    87    12    88    1
    88    12    89    1
    89    14    90    1
    90    14    91    1
    91    15    92    1
    92    16    93    1
    93    16    94    1
    94    16    95    1
    95    18    96    1
    96    18    97    1
    97    19    98    1
    98    20    99    1
    99    20   100    1
   100    20   101    1
   101    22   102    1
   102    22   103    1
   103    23   104    1
   104    24   105    1
   105    24   106    1
   106    24   107    1
   107    26   108    1
   108    26   109    1
   109    27   110    1
   110    28   111    1
   111    28   112    1
   112    28   113    1
   113    30   114    1
   114    30   115    1
   115    31   116    1
   116    32   117    1
   117    32   118    1
   118    32   119    1
   119    34   120    1
   120    34   121    1
   121    35   122    1
   122    36   123    1
   123    36   124    1
   124    36   125    1
   125    38   126    1
   126    38   127    1
   127    39   128    1
   128    40   129    1
   129    40   130    1
   130    40   131    1
   131    42   132    1
   132    42   133    1
   133    43   134    1
   134    44   135    1
   135    44   136    1
   136    44   137    1
   137    46   138    1
   138    46   139    1
   139    47   140    1
   140    48   141    1
   141    48   142    1
   142    48   143    1
   143    50   144    1
   144    50   145    1
   145    51   146    1
   146    52   147    1
   147    52   148    1
   148    52   149    1
   149    54   150    1
   150    54   151    1
   151    55   152    1
   152    56   153    1
   153    56   154    1
   154    56   155    1
   155    58   156    1
   156    58   157    1
   157    59   158    1
   158    60   159    1
   159    60   160    1
   160    60   161    1
   161    62   162    1
   162    62   163    1
   163    63   164    1
   164    64   165    1
   165    64   166    1
   166    64   167    1
   167    66   168    1
   168    66   169    1
   169    67   170    1
   170    68   171    1
   171    68   172    1
   172    68   173    1
