@<TRIPOS>MOLECULE
*****
  173   172     1     0     0
SMALL
bcc


@<TRIPOS>ATOM
      1 O            2.1050    -5.1200     5.5250 oh         1 UNL      -0.615800
      2 C            1.3290    -6.3080     5.4030 c3         1 UNL       0.084400
      3 C1           1.2030    -7.0480     6.7490 c3         1 UNL       0.103100
      4 C2           0.1700    -8.1710     6.5450 c3         1 UNL      -0.092100
      5 O1           2.3850    -7.6910     7.2510 os         1 UNL      -0.409600
      6 C3           3.6560    -7.0210     7.2880 c3         1 UNL       0.095400
      7 C4           3.8820    -5.9550     8.3900 c3         1 UNL       0.107100
      8 C5           3.5660    -6.5540     9.7730 c3         1 UNL      -0.089100
      9 O2           5.2380    -5.4730     8.5340 os         1 UNL      -0.411600
     10 C6           6.0430    -5.0650     7.4240 c3         1 UNL       0.101400
     11 C7           5.7100    -3.6920     6.7940 c3         1 UNL       0.097100
     12 C8           5.9650    -2.6040     7.8560 c3         1 UNL      -0.091100
     13 O3           6.5340    -3.3500     5.6500 os         1 UNL      -0.412600
     14 C9           6.3210    -3.8990     4.3170 c3         1 UNL       0.103400
     15 C10          4.9570    -3.5580     3.6090 c3         1 UNL       0.097100
     16 C11          4.8040    -2.0190     3.7030 c3         1 UNL      -0.090100
     17 O4           4.7440    -3.7840     2.1850 os         1 UNL      -0.414600
     18 C12          4.7570    -4.9760     1.3830 c3         1 UNL       0.101400
     19 C13          3.5020    -5.9560     1.3270 c3         1 UNL       0.107100
     20 C14          2.1710    -5.3520     1.6560 c3         1 UNL      -0.116100
     21 O5           3.3630    -6.8830     0.2020 os         1 UNL      -0.425600
     22 C15          2.6710    -6.6590    -1.0610 c3         1 UNL       0.130400
     23 C16          1.0870    -6.4920    -1.2950 c3         1 UNL       0.122100
     24 C17          0.2770    -7.6400    -0.6870 c3         1 UNL      -0.114100
     25 O6           0.5860    -5.1690    -0.9320 os         1 UNL      -0.430600
     26 C18         -0.2760    -4.4200    -1.8670 c3         1 UNL       0.125400
     27 C19          0.0890    -2.8360    -1.8990 c3         1 UNL       0.139100
     28 C20          1.5360    -2.8310    -2.4240 c3         1 UNL      -0.116100
     29 O7          -0.8240    -1.9780    -2.7060 os         1 UNL      -0.430600
     30 C21         -0.8670    -0.4870    -2.4410 c3         1 UNL       0.130400
     31 C22         -2.1950     0.3500    -3.1010 c3         1 UNL       0.141100
     32 C23         -3.3930    -0.4930    -2.6890 c3         1 UNL      -0.119100
     33 O8          -2.3840     1.8080    -2.7050 os         1 UNL      -0.433600
     34 C24         -3.3660     2.6830    -3.4830 c3         1 UNL       0.129400
     35 C25         -3.4300     4.3620    -3.0990 c3         1 UNL       0.139100
     36 C26         -1.9680     4.7830    -2.9740 c3         1 UNL      -0.117100
     37 O9          -4.2040     5.2890    -4.0410 os         1 UNL      -0.431600
     38 C27         -4.5430     6.7280    -3.6100 c3         1 UNL       0.129400
     39 C28         -5.6230     7.6460    -4.6010 c3         1 UNL       0.140100
     40 C29         -6.7820     6.6990    -4.9030 c3         1 UNL      -0.117100
     41 O10         -6.1310     8.9830    -4.0560 os         1 UNL      -0.432600
     42 C30         -6.8610     9.9760    -4.9740 c3         1 UNL       0.130400
     43 C31         -7.1940    11.5400    -4.3460 c3         1 UNL       0.140100
     44 C32         -5.8950    12.0080    -3.6940 c3         1 UNL      -0.118100
     45 O11         -7.7150    12.6120    -5.3000 os         1 UNL      -0.432600
     46 C33         -8.2160    13.9260    -4.7210 c3         1 UNL       0.127400
     47 C34         -8.9030    15.0700    -5.7480 c3         1 UNL       0.137100
     48 C35         -9.8980    14.3430    -6.6510 c3         1 UNL      -0.115100
     49 O12         -9.5840    16.1950    -5.0300 os         1 UNL      -0.430600
     50 C36         -9.8140    17.5240    -5.6870 c3         1 UNL       0.130400
     51 C37        -10.1410    18.7250    -4.6120 c3         1 UNL       0.131100
     52 C38         -8.9660    18.6370    -3.6180 c3         1 UNL      -0.115100
     53 O13        -10.0390    20.0890    -5.0650 os         1 UNL      -0.423600
     54 C39        -10.9840    21.1590    -5.2060 c3         1 UNL       0.134400
     55 C40        -12.3230    21.5280    -4.4620 c3         1 UNL       0.103100
     56 C41        -13.4110    20.4960    -4.7310 c3         1 UNL      -0.112100
     57 O14        -12.1750    21.7910    -3.0550 os         1 UNL      -0.425600
     58 C42        -12.6480    23.0790    -2.5480 c3         1 UNL       0.090400
     59 C43        -11.5340    23.6830    -1.6280 c3         1 UNL       0.113100
     60 C44        -10.5650    24.4830    -2.4890 c3         1 UNL      -0.092100
     61 O15        -11.9410    24.6150    -0.6210 os         1 UNL      -0.417600
     62 C45        -12.5930    24.1160     0.5430 c3         1 UNL       0.102400
     63 C46        -11.8950    23.0120     1.3680 c3         1 UNL       0.102100
     64 C47        -10.4700    23.3910     1.7900 c3         1 UNL      -0.091100
     65 O16        -12.5820    22.6810     2.5900 os         1 UNL      -0.417600
     66 C48        -13.9730    22.3690     2.5050 c3         1 UNL       0.130400
     67 C49        -14.3150    21.1350     1.6520 c3         1 UNL       0.102100
     68 C50        -15.7740    20.7240     1.8420 c3         1 UNL      -0.128100
     69 O17        -14.1270    21.4330     0.2650 oh         1 UNL      -0.613800
     70 H          -14.3750    20.6430    -0.2460 ho         1 UNL       0.408000
     71 H1           1.4870    -4.3990     5.7420 ho         1 UNL       0.398000
     72 H2           0.3350    -6.0110     5.0370 h1         1 UNL       0.071700
     73 H3           1.7830    -6.9460     4.6400 h1         1 UNL       0.071700
     74 H4           0.8380    -6.3560     7.5170 h1         1 UNL       0.034700
     75 H5           0.5650    -8.9390     5.8650 hc         1 UNL       0.048367
     76 H6          -0.0600    -8.6770     7.4870 hc         1 UNL       0.048367
     77 H7          -0.7680    -7.7980     6.1180 hc         1 UNL       0.048367
     78 H8           4.3790    -7.8250     7.4780 h1         1 UNL       0.061200
     79 H9           3.9120    -6.6410     6.3000 h1         1 UNL       0.061200
     80 H10          3.2230    -5.0960     8.2310 h1         1 UNL       0.032700
     81 H11          4.2660    -7.3670    10.0120 hc         1 UNL       0.048033
     82 H12          3.7080    -5.8050    10.5640 hc         1 UNL       0.048033
     83 H13          2.5490    -6.9440     9.8460 hc         1 UNL       0.048033
     84 H14          7.0580    -4.9820     7.8470 h1         1 UNL       0.053200
     85 H15          6.1170    -5.8620     6.6850 h1         1 UNL       0.053200
     86 H16          4.6570    -3.6500     6.5070 h1         1 UNL       0.055700
     87 H17          6.7740    -1.9060     7.5720 hc         1 UNL       0.047367
     88 H18          5.0630    -1.9790     7.9980 hc         1 UNL       0.047367
     89 H19          6.2030    -2.9980     8.8530 hc         1 UNL       0.047367
     90 H20          7.1210    -3.4420     3.7230 h1         1 UNL       0.052700
     91 H21          6.5410    -4.9670     4.3300 h1         1 UNL       0.052700
     92 H22          4.1570    -4.0270     4.1790 h1         1 UNL       0.063700
     93 H23          5.2740    -1.5190     2.8770 hc         1 UNL       0.047033
     94 H24          3.7510    -1.7340     3.6240 hc         1 UNL       0.047033
     95 H25          5.1930    -1.5990     4.6330 hc         1 UNL       0.047033
     96 H26          4.8660    -4.5970     0.3590 h1         1 UNL       0.049700
     97 H27          5.6960    -5.5200     1.5720 h1         1 UNL       0.049700
     98 H28          3.7290    -6.6490     2.1430 h1         1 UNL       0.085700
     99 H29          1.8730    -4.6380     0.8870 hc         1 UNL       0.050367
    100 H30          1.4140    -6.1550     1.6890 hc         1 UNL       0.050367
    101 H31          2.1770    -4.8500     2.6070 hc         1 UNL       0.050367
    102 H32          3.2130    -5.9110    -1.6390 h1         1 UNL       0.052200
    103 H33          2.8750    -7.6180    -1.5760 h1         1 UNL       0.052200
    104 H34          0.9540    -6.5880    -2.3890 h1         1 UNL       0.037700
    105 H35          0.3950    -7.7140     0.3950 hc         1 UNL       0.046367
    106 H36         -0.7950    -7.5330    -0.8900 hc         1 UNL       0.046367
    107 H37          0.5870    -8.6070    -1.1140 hc         1 UNL       0.046367
    108 H38         -0.2210    -4.8450    -2.8730 h1         1 UNL       0.041200
    109 H39         -1.3170    -4.5390    -1.5230 h1         1 UNL       0.041200
    110 H40          0.0790    -2.4830    -0.8640 h1         1 UNL       0.059700
    111 H41          1.5740    -3.1580    -3.4700 hc         1 UNL       0.045700
    112 H42          1.9960    -1.8440    -2.3590 hc         1 UNL       0.045700
    113 H43          2.1690    -3.5160    -1.8530 hc         1 UNL       0.045700
    114 H44         -0.8710    -0.3430    -1.3550 h1         1 UNL       0.042200
    115 H45          0.0530    -0.0470    -2.8460 h1         1 UNL       0.042200
    116 H46         -2.0720     0.3340    -4.1990 h1         1 UNL       0.054700
    117 H47         -3.5150    -0.4880    -1.5950 hc         1 UNL       0.046367
    118 H48         -4.3280    -0.1510    -3.1250 hc         1 UNL       0.046367
    119 H49         -3.2570    -1.5440    -2.9850 hc         1 UNL       0.046367
    120 H50         -3.1100     2.5940    -4.5440 h1         1 UNL       0.042700
    121 H51         -4.3730     2.2800    -3.3320 h1         1 UNL       0.042700
    122 H52         -3.9230     4.4430    -2.1230 h1         1 UNL       0.060700
    123 H53         -1.4570     4.6730    -3.9360 hc         1 UNL       0.045700
    124 H54         -1.8550     5.8200    -2.6490 hc         1 UNL       0.045700
    125 H55         -1.4530     4.1460    -2.2480 hc         1 UNL       0.045700
    126 H56         -4.9820     6.6790    -2.6080 h1         1 UNL       0.042200
    127 H57         -3.6080     7.2980    -3.5560 h1         1 UNL       0.042200
    128 H58         -5.0840     7.8770    -5.5270 h1         1 UNL       0.056700
    129 H59         -7.3940     6.5410    -4.0060 hc         1 UNL       0.046033
    130 H60         -7.4290     7.0740    -5.6930 hc         1 UNL       0.046033
    131 H61         -6.3990     5.7210    -5.2240 hc         1 UNL       0.046033
    132 H62         -6.2590    10.1060    -5.8790 h1         1 UNL       0.042200
    133 H63         -7.8260     9.5380    -5.2570 h1         1 UNL       0.042200
    134 H64         -7.9710    11.4140    -3.5830 h1         1 UNL       0.053700
    135 H65         -5.1620    12.2900    -4.4520 hc         1 UNL       0.046700
    136 H66         -6.0560    12.8740    -3.0440 hc         1 UNL       0.046700
    137 H67         -5.4690    11.2120    -3.0720 hc         1 UNL       0.046700
    138 H68         -8.9610    13.6940    -3.9540 h1         1 UNL       0.043200
    139 H69         -7.3730    14.4320    -4.2350 h1         1 UNL       0.043200
    140 H70         -8.1010    15.5020    -6.3590 h1         1 UNL       0.066700
    141 H71        -10.8260    14.1210    -6.1140 hc         1 UNL       0.043367
    142 H72        -10.1650    14.9430    -7.5270 hc         1 UNL       0.043367
    143 H73         -9.4760    13.4010    -7.0160 hc         1 UNL       0.043367
    144 H74         -8.9190    17.8040    -6.2600 h1         1 UNL       0.039200
    145 H75        -10.6530    17.4530    -6.3930 h1         1 UNL       0.039200
    146 H76        -11.0900    18.5410    -4.0950 h1         1 UNL       0.079700
    147 H77         -8.0660    19.0400    -4.0860 hc         1 UNL       0.044367
    148 H78         -9.1560    19.2550    -2.7290 hc         1 UNL       0.044367
    149 H79         -8.7490    17.6260    -3.3040 hc         1 UNL       0.044367
    150 H80        -11.2130    21.1860    -6.2800 h1         1 UNL       0.056200
    151 H81        -10.3670    22.0550    -5.0350 h1         1 UNL       0.056200
    152 H82        -12.6610    22.4520    -4.9490 h1         1 UNL       0.043700
    153 H83        -13.3390    19.6760    -4.0270 hc         1 UNL       0.045367
    154 H84        -14.4100    20.9410    -4.5850 hc         1 UNL       0.045367
    155 H85        -13.3660    20.1380    -5.7660 hc         1 UNL       0.045367
    156 H86        -12.8960    23.7810    -3.3550 h1         1 UNL       0.063200
    157 H87        -13.5750    22.9210    -1.9850 h1         1 UNL       0.063200
    158 H88        -10.9770    22.8630    -1.1660 h1         1 UNL       0.046700
    159 H89         -9.7280    24.8310    -1.8730 hc         1 UNL       0.045033
    160 H90        -11.0480    25.3840    -2.8870 hc         1 UNL       0.045033
    161 H91        -10.1680    23.8960    -3.3220 hc         1 UNL       0.045033
    162 H92        -12.7240    24.9890     1.2140 h1         1 UNL       0.054200
    163 H93        -13.6060    23.8360     0.2630 h1         1 UNL       0.054200
    164 H94        -11.8260    22.0970     0.7750 h1         1 UNL       0.059700
    165 H95        -10.3150    23.2680     2.8740 hc         1 UNL       0.047367
    166 H96         -9.7350    22.7620     1.2870 hc         1 UNL       0.047367
    167 H97        -10.2230    24.4360     1.5490 hc         1 UNL       0.047367
    168 H98        -14.2890    22.1850     3.5370 h1         1 UNL       0.059700
    169 H99        -14.5180    23.2560     2.1640 h1         1 UNL       0.059700
    170 H100       -13.6400    20.3100     1.9040 h1         1 UNL       0.049700
    171 H101       -16.3080    20.6500     0.8890 hc         1 UNL       0.045033
    172 H102       -15.8280    19.7490     2.3350 hc         1 UNL       0.045033
    173 H103       -16.3200    21.4320     2.4740 hc         1 UNL       0.045033
@<TRIPOS>BOND
     1     1     2 1   
     2     2     3 1   
     3     3     4 1   
     4     3     5 1   
     5     5     6 1   
     6     6     7 1   
     7     7     8 1   
     8     7     9 1   
     9     9    10 1   
    10    10    11 1   
    11    11    12 1   
    12    11    13 1   
    13    13    14 1   
    14    14    15 1   
    15    15    16 1   
    16    15    17 1   
    17    17    18 1   
    18    18    19 1   
    19    19    20 1   
    20    19    21 1   
    21    21    22 1   
    22    22    23 1   
    23    23    24 1   
    24    23    25 1   
    25    25    26 1   
    26    26    27 1   
    27    27    28 1   
    28    27    29 1   
    29    29    30 1   
    30    30    31 1   
    31    31    32 1   
    32    31    33 1   
    33    33    34 1   
    34    34    35 1   
    35    35    36 1   
    36    35    37 1   
    37    37    38 1   
    38    38    39 1   
    39    39    40 1   
    40    39    41 1   
    41    41    42 1   
    42    42    43 1   
    43    43    44 1   
    44    43    45 1   
    45    45    46 1   
    46    46    47 1   
    47    47    48 1   
    48    47    49 1   
    49    49    50 1   
    50    50    51 1   
    51    51    52 1   
    52    51    53 1   
    53    53    54 1   
    54    54    55 1   
    55    55    56 1   
    56    55    57 1   
    57    57    58 1   
    58    58    59 1   
    59    59    60 1   
    60    59    61 1   
    61    61    62 1   
    62    62    63 1   
    63    63    64 1   
    64    63    65 1   
    65    65    66 1   
    66    66    67 1   
    67    67    68 1   
    68    67    69 1   
    69    69    70 1   
    70     1    71 1   
    71     2    72 1   
    72     2    73 1   
    73     3    74 1   
    74     4    75 1   
    75     4    76 1   
    76     4    77 1   
    77     6    78 1   
    78     6    79 1   
    79     7    80 1   
    80     8    81 1   
    81     8    82 1   
    82     8    83 1   
    83    10    84 1   
    84    10    85 1   
    85    11    86 1   
    86    12    87 1   
    87    12    88 1   
    88    12    89 1   
    89    14    90 1   
    90    14    91 1   
    91    15    92 1   
    92    16    93 1   
    93    16    94 1   
    94    16    95 1   
    95    18    96 1   
    96    18    97 1   
    97    19    98 1   
    98    20    99 1   
    99    20   100 1   
   100    20   101 1   
   101    22   102 1   
   102    22   103 1   
   103    23   104 1   
   104    24   105 1   
   105    24   106 1   
   106    24   107 1   
   107    26   108 1   
   108    26   109 1   
   109    27   110 1   
   110    28   111 1   
   111    28   112 1   
   112    28   113 1   
   113    30   114 1   
   114    30   115 1   
   115    31   116 1   
   116    32   117 1   
   117    32   118 1   
   118    32   119 1   
   119    34   120 1   
   120    34   121 1   
   121    35   122 1   
   122    36   123 1   
   123    36   124 1   
   124    36   125 1   
   125    38   126 1   
   126    38   127 1   
   127    39   128 1   
   128    40   129 1   
   129    40   130 1   
   130    40   131 1   
   131    42   132 1   
   132    42   133 1   
   133    43   134 1   
   134    44   135 1   
   135    44   136 1   
   136    44   137 1   
   137    46   138 1   
   138    46   139 1   
   139    47   140 1   
   140    48   141 1   
   141    48   142 1   
   142    48   143 1   
   143    50   144 1   
   144    50   145 1   
   145    51   146 1   
   146    52   147 1   
   147    52   148 1   
   148    52   149 1   
   149    54   150 1   
   150    54   151 1   
   151    55   152 1   
   152    56   153 1   
   153    56   154 1   
   154    56   155 1   
   155    58   156 1   
   156    58   157 1   
   157    59   158 1   
   158    60   159 1   
   159    60   160 1   
   160    60   161 1   
   161    62   162 1   
   162    62   163 1   
   163    63   164 1   
   164    64   165 1   
   165    64   166 1   
   166    64   167 1   
   167    66   168 1   
   168    66   169 1   
   169    67   170 1   
   170    68   171 1   
   171    68   172 1   
   172    68   173 1   
@<TRIPOS>SUBSTRUCTURE
     1 UNL         1 TEMP              0 ****  ****    0 ROOT
