@<TRIPOS>MOLECULE
*****
   31    30     1     0     0
SMALL
bcc


@<TRIPOS>ATOM
      1 C            2.0820     4.9040    -0.0380 c3         1 UNL       0.111900
      2 C1           3.4120     4.1470    -0.1160 c3         1 UNL       0.083400
      3 O            3.9680     3.8070     1.1560 os         1 UNL      -0.412600
      4 C2           3.1810     2.9620     2.0000 c3         1 UNL       0.090900
      5 C3           2.8180     1.6120     1.3710 c3         1 UNL       0.087900
      6 O1           2.3490     0.6290     2.2930 os         1 UNL      -0.402600
      7 C4           1.1750     0.9400     3.0400 c3         1 UNL       0.087900
      8 C5          -0.0990     1.0870     2.2000 c3         1 UNL       0.090900
      9 O2          -1.2940     1.0480     2.9870 os         1 UNL      -0.412600
     10 C6          -1.4760     2.1860     3.8260 c3         1 UNL       0.083400
     11 C7          -2.8550     2.1280     4.4820 c3         1 UNL       0.111900
     12 O3          -3.0250     3.2000     5.4040 oh         1 UNL      -0.596300
     13 O4           2.1860     6.0890     0.7440 oh         1 UNL      -0.596300
     14 H            1.2990     4.2860     0.4070 h1         1 UNL       0.053200
     15 H1           1.7570     5.1880    -1.0440 h1         1 UNL       0.053200
     16 H2           3.3150     3.2500    -0.7330 h1         1 UNL       0.044950
     17 H3           4.1540     4.7900    -0.6000 h1         1 UNL       0.044950
     18 H4           3.7690     2.7860     2.9080 h1         1 UNL       0.060950
     19 H5           2.2860     3.5010     2.3270 h1         1 UNL       0.060950
     20 H6           2.0870     1.7340     0.5660 h1         1 UNL       0.055950
     21 H7           3.7150     1.1940     0.8980 h1         1 UNL       0.055950
     22 H8           1.0280     0.1160     3.7470 h1         1 UNL       0.055950
     23 H9           1.3500     1.8280     3.6550 h1         1 UNL       0.055950
     24 H10         -0.0800     2.0060     1.6030 h1         1 UNL       0.060950
     25 H11         -0.1570     0.2570     1.4860 h1         1 UNL       0.060950
     26 H12         -0.7080     2.2040     4.6060 h1         1 UNL       0.044950
     27 H13         -1.3840     3.1100     3.2430 h1         1 UNL       0.044950
     28 H14         -3.6370     2.2030     3.7200 h1         1 UNL       0.053200
     29 H15         -3.0080     1.1770     5.0030 h1         1 UNL       0.053200
     30 H16         -2.6970     2.8950     6.2660 ho         1 UNL       0.406000
     31 H17          3.0750     6.4610     0.6120 ho         1 UNL       0.406000
@<TRIPOS>BOND
     1     1     2 1   
     2     2     3 1   
     3     3     4 1   
     4     4     5 1   
     5     5     6 1   
     6     6     7 1   
     7     7     8 1   
     8     8     9 1   
     9     9    10 1   
    10    10    11 1   
    11    11    12 1   
    12     1    13 1   
    13     1    14 1   
    14     1    15 1   
    15     2    16 1   
    16     2    17 1   
    17     4    18 1   
    18     4    19 1   
    19     5    20 1   
    20     5    21 1   
    21     7    22 1   
    22     7    23 1   
    23     8    24 1   
    24     8    25 1   
    25    10    26 1   
    26    10    27 1   
    27    11    28 1   
    28    11    29 1   
    29    12    30 1   
    30    13    31 1   
@<TRIPOS>SUBSTRUCTURE
     1 UNL         1 TEMP              0 ****  ****    0 ROOT
