@<TRIPOS>MOLECULE
*****
 31 30 0 0 0
SMALL
GASTEIGER

@<TRIPOS>ATOM
      1 C           2.0818    4.9036   -0.0380 C.3     1  UNL1        0.0676
      2 C           3.4118    4.1475   -0.1158 C.3     1  UNL1        0.0708
      3 O           3.9684    3.8066    1.1562 O.3     1  UNL1       -0.3752
      4 C           3.1812    2.9621    1.9998 C.3     1  UNL1        0.0711
      5 C           2.8178    1.6117    1.3715 C.3     1  UNL1        0.0711
      6 O           2.3495    0.6293    2.2933 O.3     1  UNL1       -0.3752
      7 C           1.1746    0.9404    3.0399 C.3     1  UNL1        0.0711
      8 C          -0.0986    1.0872    2.2001 C.3     1  UNL1        0.0711
      9 O          -1.2945    1.0478    2.9866 O.3     1  UNL1       -0.3752
     10 C          -1.4759    2.1862    3.8264 C.3     1  UNL1        0.0708
     11 C          -2.8546    2.1283    4.4816 C.3     1  UNL1        0.0676
     12 O          -3.0249    3.2000    5.4039 O.3     1  UNL1       -0.3927
     13 O           2.1857    6.0887    0.7444 O.3     1  UNL1       -0.3927
     14 H           1.2986    4.2864    0.4066 H       1  UNL1        0.0580
     15 H           1.7572    5.1878   -1.0436 H       1  UNL1        0.0580
     16 H           3.3146    3.2504   -0.7325 H       1  UNL1        0.0583
     17 H           4.1543    4.7898   -0.6002 H       1  UNL1        0.0583
     18 H           3.7695    2.7859    2.9078 H       1  UNL1        0.0583
     19 H           2.2864    3.5013    2.3270 H       1  UNL1        0.0583
     20 H           2.0871    1.7344    0.5663 H       1  UNL1        0.0583
     21 H           3.7148    1.1937    0.8981 H       1  UNL1        0.0583
     22 H           1.0282    0.1162    3.7473 H       1  UNL1        0.0583
     23 H           1.3502    1.8276    3.6548 H       1  UNL1        0.0583
     24 H          -0.0798    2.0055    1.6027 H       1  UNL1        0.0583
     25 H          -0.1567    0.2569    1.4860 H       1  UNL1        0.0583
     26 H          -0.7078    2.2037    4.6064 H       1  UNL1        0.0583
     27 H          -1.3838    3.1099    3.2428 H       1  UNL1        0.0583
     28 H          -3.6371    2.2032    3.7196 H       1  UNL1        0.0580
     29 H          -3.0083    1.1771    5.0033 H       1  UNL1        0.0580
     30 H          -2.6970    2.8948    6.2664 H       1  UNL1        0.2095
     31 H           3.0752    6.4612    0.6115 H       1  UNL1        0.2095
@<TRIPOS>BOND
     1     1     2    1
     2     2     3    1
     3     3     4    1
     4     4     5    1
     5     5     6    1
     6     6     7    1
     7     7     8    1
     8     8     9    1
     9     9    10    1
    10    10    11    1
    11    11    12    1
    12     1    13    1
    13     1    14    1
    14     1    15    1
    15     2    16    1
    16     2    17    1
    17     4    18    1
    18     4    19    1
    19     5    20    1
    20     5    21    1
    21     7    22    1
    22     7    23    1
    23     8    24    1
    24     8    25    1
    25    10    26    1
    26    10    27    1
    27    11    28    1
    28    11    29    1
    29    12    30    1
    30    13    31    1
