@<TRIPOS>MOLECULE
*****
   20    19     1     0     0
SMALL
bcc


@<TRIPOS>ATOM
      1 C            1.1350    -1.5030     2.0170 c3         1 UNL      -0.093100
      2 C1           0.5710    -0.2240     1.4150 c3         1 UNL      -0.080400
      3 C2           0.9960     1.0100     2.2150 c3         1 UNL      -0.075400
      4 C3           0.4750     2.3380     1.6300 c3         1 UNL      -0.067700
      5 C4          -1.0530     2.4050     1.5910 c3         1 UNL      -0.089600
      6 C5           1.0160     3.5140     2.4470 c3         1 UNL      -0.089600
      7 H            2.2300    -1.4980     1.9970 hc         1 UNL       0.032033
      8 H1           0.7900    -2.3710     1.4460 hc         1 UNL       0.032033
      9 H2           0.8100    -1.6270     3.0540 hc         1 UNL       0.032033
     10 H3           0.9100    -0.1310     0.3780 hc         1 UNL       0.039200
     11 H4          -0.5200    -0.3100     1.3970 hc         1 UNL       0.039200
     12 H5           0.6560     0.9070     3.2530 hc         1 UNL       0.039200
     13 H6           2.0930     1.0460     2.2470 hc         1 UNL       0.039200
     14 H7           0.8500     2.4400     0.6030 hc         1 UNL       0.045700
     15 H8          -1.4800     2.2570     2.5880 hc         1 UNL       0.033033
     16 H9          -1.3880     3.3790     1.2200 hc         1 UNL       0.033033
     17 H10         -1.4700     1.6460     0.9230 hc         1 UNL       0.033033
     18 H11          2.1110     3.5160     2.4540 hc         1 UNL       0.033033
     19 H12          0.6830     4.4680     2.0240 hc         1 UNL       0.033033
     20 H13          0.6710     3.4670     3.4860 hc         1 UNL       0.033033
@<TRIPOS>BOND
     1     1     2 1   
     2     2     3 1   
     3     3     4 1   
     4     4     5 1   
     5     4     6 1   
     6     1     7 1   
     7     1     8 1   
     8     1     9 1   
     9     2    10 1   
    10     2    11 1   
    11     3    12 1   
    12     3    13 1   
    13     4    14 1   
    14     5    15 1   
    15     5    16 1   
    16     5    17 1   
    17     6    18 1   
    18     6    19 1   
    19     6    20 1   
@<TRIPOS>SUBSTRUCTURE
     1 UNL         1 TEMP              0 ****  ****    0 ROOT
