@<TRIPOS>MOLECULE
*****
    6     5     1     0     0
SMALL
bcc


@<TRIPOS>ATOM
      1 C            0.9400    -0.0410     0.0690 c3         1 UNL      -0.045000
      2 C1           0.4330     1.2120     0.7640 c1         1 UNL       0.208700
      3 N            0.0130     2.2520     1.3420 n1         1 UNL      -0.375800
      4 H            0.5790    -0.0650    -0.9640 hc         1 UNL       0.070700
      5 H1           0.5790    -0.9300     0.5930 hc         1 UNL       0.070700
      6 H2           2.0330    -0.0480     0.0640 hc         1 UNL       0.070700
@<TRIPOS>BOND
     1     1     2 1   
     2     2     3 3   
     3     1     4 1   
     4     1     5 1   
     5     1     6 1   
@<TRIPOS>SUBSTRUCTURE
     1 UNL         1 TEMP              0 ****  ****    0 ROOT
