@<TRIPOS>MOLECULE
*****
 6 5 0 0 0
SMALL
GASTEIGER

@<TRIPOS>ATOM
      1 C           0.9396   -0.0405    0.0686 C.3     1  UNL1        0.0232
      2 C           0.4329    1.2123    0.7645 C.1     1  UNL1        0.0591
      3 N           0.0126    2.2516    1.3417 N.1     1  UNL1       -0.1969
      4 H           0.5793   -0.0653   -0.9635 H       1  UNL1        0.0382
      5 H           0.5793   -0.9298    0.5930 H       1  UNL1        0.0382
      6 H           2.0330   -0.0482    0.0643 H       1  UNL1        0.0382
@<TRIPOS>BOND
     1     1     2    1
     2     2     3    3
     3     1     4    1
     4     1     5    1
     5     1     6    1
