@<TRIPOS>MOLECULE
*****
   83    82     1     0     0
SMALL
bcc


@<TRIPOS>ATOM
      1 O           -0.1670    -7.1170    -0.9110 oh         1 UNL      -0.595800
      2 C            0.7960    -6.9230     0.1180 c3         1 UNL       0.110400
      3 C1           2.0160    -7.8570    -0.0010 c3         1 UNL       0.095100
      4 C2           1.5180    -9.3040    -0.1190 c3         1 UNL      -0.096100
      5 O1           2.8720    -7.6410    -1.1340 os         1 UNL      -0.426600
      6 C3           3.4290    -6.3500    -1.4020 c3         1 UNL       0.101400
      7 C4           4.4900    -5.7790    -0.4270 c3         1 UNL       0.107100
      8 C5           5.6920    -6.7230    -0.2840 c3         1 UNL      -0.092100
      9 O2           5.1010    -4.5460    -0.8580 os         1 UNL      -0.416600
     10 C6           4.2940    -3.4360    -1.2260 c3         1 UNL       0.102400
     11 C7           3.5700    -2.7300    -0.0700 c3         1 UNL       0.108100
     12 C8           4.5720    -2.0840     0.8990 c3         1 UNL      -0.094100
     13 O3           2.7280    -1.6590    -0.5240 os         1 UNL      -0.432600
     14 C9           1.5050    -2.0030    -1.1810 c3         1 UNL       0.094400
     15 C10          0.4690    -2.7370    -0.3050 c3         1 UNL       0.116100
     16 C11          0.3180    -2.1700     1.1000 c3         1 UNL      -0.128100
     17 O4          -0.8050    -3.0050    -0.8990 os         1 UNL      -0.421600
     18 C12         -1.5210    -2.0100    -1.6360 c3         1 UNL       0.091400
     19 C13         -2.6310    -1.2620    -0.8650 c3         1 UNL       0.135100
     20 C14         -2.1720    -0.0850    -0.0230 c3         1 UNL      -0.122100
     21 O5          -3.7310    -0.8890    -1.7280 os         1 UNL      -0.422600
     22 C15         -3.6250     0.2530    -2.5930 c3         1 UNL       0.098400
     23 C16         -2.9260    -0.0330    -3.9400 c3         1 UNL       0.130100
     24 C17         -3.7920    -0.9570    -4.8050 c3         1 UNL      -0.091100
     25 O6          -2.6840     1.1300    -4.7420 os         1 UNL      -0.414600
     26 C18         -1.7780     2.1150    -4.2500 c3         1 UNL       0.103400
     27 C19         -0.3100     1.6680    -4.0850 c3         1 UNL       0.101100
     28 C20          0.2470     1.0540    -5.3680 c3         1 UNL      -0.090100
     29 O7           0.5660     2.7570    -3.7530 os         1 UNL      -0.417600
     30 C21          0.3350     3.4330    -2.5180 c3         1 UNL       0.129400
     31 C22          0.5040     2.5660    -1.2640 c3         1 UNL       0.106100
     32 C23          1.8890     1.9520    -1.1360 c3         1 UNL      -0.129100
     33 O8           0.2100     3.3510    -0.1100 oh         1 UNL      -0.629800
     34 H            0.5050     2.8590     0.6760 ho         1 UNL       0.422000
     35 H1           0.2550    -6.8920    -1.7580 ho         1 UNL       0.413000
     36 H2           1.0970    -5.8750     0.1090 h1         1 UNL       0.046200
     37 H3           0.2830    -7.1120     1.0680 h1         1 UNL       0.046200
     38 H4           2.6230    -7.7610     0.9070 h1         1 UNL       0.041700
     39 H5           1.0090    -9.4700    -1.0750 hc         1 UNL       0.051367
     40 H6           2.3600   -10.0020    -0.0880 hc         1 UNL       0.051367
     41 H7           0.8330    -9.5620     0.7080 hc         1 UNL       0.051367
     42 H8           3.9070    -6.4470    -2.3840 h1         1 UNL       0.058700
     43 H9           2.6130    -5.6400    -1.5480 h1         1 UNL       0.058700
     44 H10          4.0510    -5.6300     0.5630 h1         1 UNL       0.044700
     45 H11          6.2490    -6.7870    -1.2280 hc         1 UNL       0.049367
     46 H12          6.4030    -6.3160     0.4470 hc         1 UNL       0.049367
     47 H13          5.4100    -7.7300     0.0290 hc         1 UNL       0.049367
     48 H14          4.9790    -2.7070    -1.6910 h1         1 UNL       0.055700
     49 H15          3.6160    -3.7150    -2.0380 h1         1 UNL       0.055700
     50 H16          2.9800    -3.4460     0.5050 h1         1 UNL       0.049700
     51 H17          4.1140    -1.2490     1.4420 hc         1 UNL       0.048367
     52 H18          4.9390    -2.8110     1.6290 hc         1 UNL       0.048367
     53 H19          5.4400    -1.6710     0.3710 hc         1 UNL       0.048367
     54 H20          1.0860    -1.0460    -1.5080 h1         1 UNL       0.059200
     55 H21          1.7060    -2.5650    -2.0990 h1         1 UNL       0.059200
     56 H22          0.8800    -3.7390    -0.1520 h1         1 UNL       0.066700
     57 H23         -0.6850    -2.3550     1.4980 hc         1 UNL       0.052033
     58 H24          1.0350    -2.6370     1.7830 hc         1 UNL       0.052033
     59 H25          0.5240    -1.0970     1.1240 hc         1 UNL       0.052033
     60 H26         -0.8490    -1.3350    -2.1630 h1         1 UNL       0.045700
     61 H27         -2.0310    -2.5880    -2.4180 h1         1 UNL       0.045700
     62 H28         -3.0590    -1.9860    -0.1620 h1         1 UNL       0.092700
     63 H29         -1.8140     0.7360    -0.6290 hc         1 UNL       0.046700
     64 H30         -2.9980     0.3000     0.5880 hc         1 UNL       0.046700
     65 H31         -1.3550    -0.3350     0.6600 hc         1 UNL       0.046700
     66 H32         -4.6570     0.5660    -2.8050 h1         1 UNL       0.039700
     67 H33         -3.1930     1.1050    -2.0710 h1         1 UNL       0.039700
     68 H34         -1.9770    -0.5370    -3.7750 h1         1 UNL       0.052700
     69 H35         -4.3690    -0.3930    -5.5460 hc         1 UNL       0.048033
     70 H36         -3.1480    -1.6440    -5.3660 hc         1 UNL       0.048033
     71 H37         -4.4840    -1.5660    -4.2150 hc         1 UNL       0.048033
     72 H38         -1.8020     2.9430    -4.9700 h1         1 UNL       0.052700
     73 H39         -2.1710     2.5380    -3.3230 h1         1 UNL       0.052700
     74 H40         -0.2300     0.9040    -3.3060 h1         1 UNL       0.059700
     75 H41          1.3230     1.2500    -5.4720 hc         1 UNL       0.047700
     76 H42          0.0990    -0.0290    -5.3830 hc         1 UNL       0.047700
     77 H43         -0.2370     1.4680    -6.2610 hc         1 UNL       0.047700
     78 H44          1.0480     4.2640    -2.4720 h1         1 UNL       0.057200
     79 H45         -0.6510     3.9090    -2.5260 h1         1 UNL       0.057200
     80 H46         -0.2190     1.7540    -1.2950 h1         1 UNL       0.051700
     81 H47          2.6450     2.7210    -0.9490 hc         1 UNL       0.045033
     82 H48          1.9150     1.2690    -0.2780 hc         1 UNL       0.045033
     83 H49          2.1650     1.3840    -2.0290 hc         1 UNL       0.045033
@<TRIPOS>BOND
     1     1     2 1   
     2     2     3 1   
     3     3     4 1   
     4     3     5 1   
     5     5     6 1   
     6     6     7 1   
     7     7     8 1   
     8     7     9 1   
     9     9    10 1   
    10    10    11 1   
    11    11    12 1   
    12    11    13 1   
    13    13    14 1   
    14    14    15 1   
    15    15    16 1   
    16    15    17 1   
    17    17    18 1   
    18    18    19 1   
    19    19    20 1   
    20    19    21 1   
    21    21    22 1   
    22    22    23 1   
    23    23    24 1   
    24    23    25 1   
    25    25    26 1   
    26    26    27 1   
    27    27    28 1   
    28    27    29 1   
    29    29    30 1   
    30    30    31 1   
    31    31    32 1   
    32    31    33 1   
    33    33    34 1   
    34     1    35 1   
    35     2    36 1   
    36     2    37 1   
    37     3    38 1   
    38     4    39 1   
    39     4    40 1   
    40     4    41 1   
    41     6    42 1   
    42     6    43 1   
    43     7    44 1   
    44     8    45 1   
    45     8    46 1   
    46     8    47 1   
    47    10    48 1   
    48    10    49 1   
    49    11    50 1   
    50    12    51 1   
    51    12    52 1   
    52    12    53 1   
    53    14    54 1   
    54    14    55 1   
    55    15    56 1   
    56    16    57 1   
    57    16    58 1   
    58    16    59 1   
    59    18    60 1   
    60    18    61 1   
    61    19    62 1   
    62    20    63 1   
    63    20    64 1   
    64    20    65 1   
    65    22    66 1   
    66    22    67 1   
    67    23    68 1   
    68    24    69 1   
    69    24    70 1   
    70    24    71 1   
    71    26    72 1   
    72    26    73 1   
    73    27    74 1   
    74    28    75 1   
    75    28    76 1   
    76    28    77 1   
    77    30    78 1   
    78    30    79 1   
    79    31    80 1   
    80    32    81 1   
    81    32    82 1   
    82    32    83 1   
@<TRIPOS>SUBSTRUCTURE
     1 UNL         1 TEMP              0 ****  ****    0 ROOT
