@<TRIPOS>MOLECULE
*****
   18    18     1     0     0
SMALL
bcc


@<TRIPOS>ATOM
      1 C           -1.4200     0.3280    -0.2240 c3         1 UNL      -0.076400
      2 C1          -0.9910    -1.0630     0.2340 c3         1 UNL      -0.076400
      3 C2           0.4250    -1.3910    -0.2310 c3         1 UNL      -0.076400
      4 C3           1.4200    -0.3280     0.2260 c3         1 UNL      -0.076400
      5 C4           0.9970     1.0650    -0.2310 c3         1 UNL      -0.076400
      6 C5          -0.4240     1.3960     0.2230 c3         1 UNL      -0.076400
      7 H           -1.5040     0.3430    -1.3180 hc         1 UNL       0.038200
      8 H1          -2.4140     0.5590     0.1760 hc         1 UNL       0.038200
      9 H2          -1.0360    -1.1160     1.3280 hc         1 UNL       0.038200
     10 H3          -1.6910    -1.8130    -0.1530 hc         1 UNL       0.038200
     11 H4           0.7250    -2.3710     0.1570 hc         1 UNL       0.038200
     12 H5           0.4440    -1.4600    -1.3260 hc         1 UNL       0.038200
     13 H6           1.4970    -0.3470     1.3210 hc         1 UNL       0.038200
     14 H7           2.4170    -0.5590    -0.1670 hc         1 UNL       0.038200
     15 H8           1.6930     1.8120     0.1650 hc         1 UNL       0.038200
     16 H9           1.0520     1.1220    -1.3240 hc         1 UNL       0.038200
     17 H10         -0.7230     2.3710    -0.1780 hc         1 UNL       0.038200
     18 H11         -0.4470     1.4780     1.3170 hc         1 UNL       0.038200
@<TRIPOS>BOND
     1     1     2 1   
     2     2     3 1   
     3     3     4 1   
     4     4     5 1   
     5     5     6 1   
     6     1     6 1   
     7     1     7 1   
     8     1     8 1   
     9     2     9 1   
    10     2    10 1   
    11     3    11 1   
    12     3    12 1   
    13     4    13 1   
    14     4    14 1   
    15     5    15 1   
    16     5    16 1   
    17     6    17 1   
    18     6    18 1   
@<TRIPOS>SUBSTRUCTURE
     1 UNL         1 TEMP              0 ****  ****    0 ROOT
