@<TRIPOS>MOLECULE
*****
 18 18 0 0 0
SMALL
GASTEIGER

@<TRIPOS>ATOM
      1 C          -1.4201    0.3283   -0.2241 C.3     1  UNL1       -0.0531
      2 C          -0.9908   -1.0635    0.2336 C.3     1  UNL1       -0.0531
      3 C           0.4253   -1.3909   -0.2314 C.3     1  UNL1       -0.0531
      4 C           1.4202   -0.3277    0.2259 C.3     1  UNL1       -0.0531
      5 C           0.9969    1.0649   -0.2305 C.3     1  UNL1       -0.0531
      6 C          -0.4242    1.3957    0.2229 C.3     1  UNL1       -0.0531
      7 H          -1.5042    0.3428   -1.3178 H       1  UNL1        0.0265
      8 H          -2.4136    0.5591    0.1759 H       1  UNL1        0.0265
      9 H          -1.0364   -1.1164    1.3283 H       1  UNL1        0.0265
     10 H          -1.6907   -1.8128   -0.1528 H       1  UNL1        0.0265
     11 H           0.7254   -2.3710    0.1566 H       1  UNL1        0.0265
     12 H           0.4435   -1.4599   -1.3261 H       1  UNL1        0.0265
     13 H           1.4967   -0.3466    1.3207 H       1  UNL1        0.0265
     14 H           2.4166   -0.5593   -0.1671 H       1  UNL1        0.0265
     15 H           1.6932    1.8122    0.1654 H       1  UNL1        0.0265
     16 H           1.0522    1.1224   -1.3242 H       1  UNL1        0.0265
     17 H          -0.7226    2.3708   -0.1779 H       1  UNL1        0.0265
     18 H          -0.4470    1.4780    1.3166 H       1  UNL1        0.0265
@<TRIPOS>BOND
     1     1     2    1
     2     2     3    1
     3     3     4    1
     4     4     5    1
     5     5     6    1
     6     1     6    1
     7     1     7    1
     8     1     8    1
     9     2     9    1
    10     2    10    1
    11     3    11    1
    12     3    12    1
    13     4    13    1
    14     4    14    1
    15     5    15    1
    16     5    16    1
    17     6    17    1
    18     6    18    1
