@<TRIPOS>MOLECULE
*****
    9     8     1     0     0
SMALL
bcc


@<TRIPOS>ATOM
      1 C            0.9450     0.0480    -0.0650 c3         1 UNL      -0.136100
      2 C1           0.4490     1.2640     0.6900 c3         1 UNL       0.126400
      3 O            0.9210     2.4480     0.0650 oh         1 UNL      -0.599800
      4 H            0.6010     0.0730    -1.1040 hc         1 UNL       0.042367
      5 H1           0.5870    -0.8740     0.4030 hc         1 UNL       0.042367
      6 H2           2.0390     0.0270    -0.0910 hc         1 UNL       0.042367
      7 H3          -0.6450     1.2920     0.6940 h1         1 UNL       0.043700
      8 H4           0.7980     1.2510     1.7270 h1         1 UNL       0.043700
      9 H5           1.8930     2.4170     0.0720 ho         1 UNL       0.396000
@<TRIPOS>BOND
     1     1     2 1   
     2     2     3 1   
     3     1     4 1   
     4     1     5 1   
     5     1     6 1   
     6     2     7 1   
     7     2     8 1   
     8     3     9 1   
@<TRIPOS>SUBSTRUCTURE
     1 UNL         1 TEMP              0 ****  ****    0 ROOT
