data_image0
_chemical_formula_structural       OC3H8OC3H8OC3H8OC3H8OC3H8OC3H8OC3H8OC3H8OC3H8OC3H8OC3H8OC3H8OC3H8OC3H8OC3H8OC3H8OC3H8OC3H8OC3H8OC3H8OC3H8OC3H8OC3H8OC3H8OC3H8OC3H8OC3H8OC3H8OC3H8OC3H8OC3H8OC3H8OC3H8OC3H8OC3H8OC3H8OC3H8OC3H8OC3H8OC3H8OC3H8OC3H8OC3H8OC3H8OC3H8OC3H8OC3H8OC3H8OC3H8OC3H8OC3H8OC3H8OC3H8OC3H8OC3H8OC3H8OC3H8OC3H8OC3H8OC3H8OC3H8OC3H8OC3H8OC3H8OC3H8OC3H8OC3H8OC3H8OC3H8OC3H8OC3H8OC3H8OC3H8OC3H8OC3H8OC3H8OC3H8OC3H8OC3H8OC3H8OC3H8OC3H8OC3H8OC3H8OC3H8OC3H8OC3H8OC3H8OC3H8OC3H8OC3H8OC3H8OC3H8OC3H8OC3H8OC3H8OC3H8OC3H8OC3H8OC3H8OC3H8OC3H8OC3H8OC3H8OC3H8OC3H8OC3H8OC3H8OC3H8OC3H8OC3H8OC3H8OC3H8OC3H8OC3H8OC3H8OC3H8OC3H8OC3H8OC3H8OC3H8OC3H8OC3H8OC3H8OC3H8OC3H8OC3H8OC3H8
_chemical_formula_sum              "O128 C384 H1024"
_cell_length_a       25.149499893188477
_cell_length_b       25.149499893188477
_cell_length_c       25.149499893188477
_cell_angle_alpha    90.0
_cell_angle_beta     90.0
_cell_angle_gamma    90.0

_space_group_name_H-M_alt    "P 1"
_space_group_IT_number       1

loop_
  _space_group_symop_operation_xyz
  'x, y, z'

loop_
  _atom_site_type_symbol
  _atom_site_label
  _atom_site_symmetry_multiplicity
  _atom_site_fract_x
  _atom_site_fract_y
  _atom_site_fract_z
  _atom_site_occupancy
  O   O1        1.0  0.5134614089681145  0.5098508361779736  0.04293986936465826  1.0000
  C   C1        1.0  0.5249831613381678  0.5576480856304595  0.07158276258557283  1.0000
  C   C2        1.0  0.5633683870523961  0.5946842236831399  0.03902388254908449  1.0000
  C   C3        1.0  0.4751180095329163  0.5881392334964929  0.08474006556994039  1.0000
  H   H1        1.0  0.5243377596375799  0.4795381789387544  0.06164615545376726  1.0000
  H   H2        1.0  0.5470232218703507  0.552323329648482  0.10844014002595108  1.0000
  H   H3        1.0  0.5718106014463891  0.6263810066563832  0.06621949371053122  1.0000
  H   H4        1.0  0.5990331785516072  0.5711757411084972  0.029769294148182017  1.0000
  H   H5        1.0  0.5472617399333529  0.6111799322165872  0.0025043961218910262  1.0000
  H   H6        1.0  0.48453947520842955  0.6237681145400752  0.10772272774830628  1.0000
  H   H7        1.0  0.46120607046907985  0.6065345547539666  0.0482818694271083  1.0000
  H   H8        1.0  0.44309314091045365  0.5633259543994793  0.10224436632620436  1.0000
  O   O2        1.0  0.07305483917386424  0.7774265692374844  0.39751475506308903  1.0000
  C   C4        1.0  0.12269948520271651  0.7720154310209008  0.3688985717172357  1.0000
  C   C5        1.0  0.14946564527981285  0.7231186853510968  0.39277055734517274  1.0000
  C   C6        1.0  0.10872211461908884  0.765042359558454  0.308140024370779  1.0000
  H   H9        1.0  0.06874655350376446  0.7448348312911567  0.4164986737106844  1.0000
  H   H10       1.0  0.1484659263944759  0.8087450981682854  0.37276692617411095  1.0000
  H   H11       1.0  0.18649492951827304  0.7140744120666963  0.37262555954594345  1.0000
  H   H12       1.0  0.15993584194846783  0.7280667419935155  0.4343233339187951  1.0000
  H   H13       1.0  0.12276753307672071  0.6878079927420354  0.393168037217236  1.0000
  H   H14       1.0  0.09728267760356711  0.8029677268242392  0.2944097608877455  1.0000
  H   H15       1.0  0.1446179258214621  0.7489627495575599  0.2902096614643526  1.0000
  H   H16       1.0  0.07472712053844878  0.7360685130368635  0.3034422979546764  1.0000
  O   O3        1.0  0.419010774160726  0.7404460978980963  0.5704241627439064  1.0000
  C   C7        1.0  0.4709009407860056  0.7603791594750295  0.5571125382017948  1.0000
  C   C8        1.0  0.5034075100407454  0.7160969242524664  0.5306743023392962  1.0000
  C   C9        1.0  0.46303727547099216  0.8032886831070394  0.5116475339330744  1.0000
  H   H17       1.0  0.3943508062633933  0.7698380525349441  0.567564334106937  1.0000
  H   H18       1.0  0.49261162618010695  0.780271040113797  0.5911803961567776  1.0000
  H   H19       1.0  0.4807130229764286  0.6992154537738035  0.4990613611922903  1.0000
  H   H20       1.0  0.5412651896782584  0.7313865805729941  0.5212330044602752  1.0000
  H   H21       1.0  0.5040420669928826  0.6842896798381688  0.5611561597621402  1.0000
  H   H22       1.0  0.4243692409522068  0.8033632344900873  0.49273399481618596  1.0000
  H   H23       1.0  0.47218624666235637  0.8422492721510141  0.5302232035083778  1.0000
  H   H24       1.0  0.4960134103254517  0.7996582781133906  0.48123165754393077  1.0000
  O   O4        1.0  0.21886684400793263  0.7765551626451834  0.9111092640934002  1.0000
  C   C10       1.0  0.2262410924338518  0.7848423214708127  0.8535793757797218  1.0000
  C   C11       1.0  0.19674335915284433  0.8359654382508894  0.8383389399210426  1.0000
  C   C12       1.0  0.28512321519133366  0.7920370744785656  0.838498963381433  1.0000
  H   H25       1.0  0.21583965458773186  0.7373520363727984  0.9161111671345844  1.0000
  H   H26       1.0  0.20491950622826555  0.7558573264173949  0.8280325302070982  1.0000
  H   H27       1.0  0.15734289615324495  0.837297120397343  0.858151643239845  1.0000
  H   H28       1.0  0.22067285089446723  0.8726347364045983  0.8470430692647551  1.0000
  H   H29       1.0  0.18705796894490734  0.8349844426006863  0.7952729575118518  1.0000
  H   H30       1.0  0.279737426981816  0.8078537456525215  0.7980012407895078  1.0000
  H   H31       1.0  0.301983564375249  0.8263921779068454  0.8614087616854563  1.0000
  H   H32       1.0  0.3100039544767091  0.7542184147024481  0.837160000772116  1.0000
  O   O5        1.0  0.08823370203878311  0.9092310001040319  0.6638114770036269  1.0000
  C   C13       1.0  0.0921967621562129  0.8611473397872904  0.6359196838077715  1.0000
  C   C14       1.0  0.12131064804299788  0.8670557634390961  0.5826503207711393  1.0000
  C   C15       1.0  0.11926562049897385  0.8209544196778223  0.672341324949355  1.0000
  H   H33       1.0  0.07736000112379728  0.8996999071988834  0.6994920437668268  1.0000
  H   H34       1.0  0.05198863617777632  0.849065278064771  0.624486095815118  1.0000
  H   H35       1.0  0.11111062334710015  0.9003656341545329  0.5579368098607956  1.0000
  H   H36       1.0  0.16193205659341972  0.8736004124658777  0.5923591838116379  1.0000
  H   H37       1.0  0.11738560299561164  0.8292179160050906  0.5608004683949961  1.0000
  H   H38       1.0  0.11952449244583761  0.7802132497002233  0.6631636482170031  1.0000
  H   H39       1.0  0.16052753005611203  0.8400629443817333  0.6803519693301827  1.0000
  H   H40       1.0  0.0987212187337547  0.8206237554485009  0.7118786041884267  1.0000
  O   O6        1.0  0.7940778641649602  0.9192086414514037  0.8739333518895467  1.0000
  C   C16       1.0  0.8077302016451577  0.9439479381627673  0.8246895603525457  1.0000
  C   C17       1.0  0.7570144233824874  0.9741979516115854  0.8063655291806648  1.0000
  C   C18       1.0  0.8572011352734232  0.9854202101534517  0.8297992329323494  1.0000
  H   H41       1.0  0.8201382253166153  0.9327852144031576  0.8985597222997092  1.0000
  H   H42       1.0  0.8135231204156601  0.9111735007584179  0.7952339758221895  1.0000
  H   H43       1.0  0.7273240365687822  0.941984581427655  0.7975592427359796  1.0000
  H   H44       1.0  0.7409375438533835  0.0011872059857385153  0.833145539632579  1.0000
  H   H45       1.0  0.7643610851763483  0.9958739019213428  0.7673851461049157  1.0000
  H   H46       1.0  0.848226710694065  0.016006044594172986  0.8594080153400537  1.0000
  H   H47       1.0  0.8945093888762763  0.9633488277260683  0.8403256557687614  1.0000
  H   H48       1.0  0.8600319545860285  0.00986668712560479  0.7920463271476441  1.0000
  O   O7        1.0  0.6835823918175103  0.7409756157834047  0.6527305850899282  1.0000
  C   C19       1.0  0.6400386905649619  0.7095058611814709  0.6669662109083551  1.0000
  C   C20       1.0  0.5937701569980117  0.7458415371941578  0.6865598868101755  1.0000
  C   C21       1.0  0.6222769401565179  0.676288894500306  0.6162700755810154  1.0000
  H   H49       1.0  0.7164159850701398  0.7192550709487159  0.6454801649712606  1.0000
  H   H50       1.0  0.6518845094188266  0.6820937964116772  0.699387990405483  1.0000
  H   H51       1.0  0.5729288682158853  0.7659083056047966  0.6550823205220915  1.0000
  H   H52       1.0  0.5624513246814562  0.7223945612103646  0.7024146299141525  1.0000
  H   H53       1.0  0.6060623724024113  0.7746469417976986  0.7153668842883328  1.0000
  H   H54       1.0  0.6100199151139051  0.7071042981183279  0.5891486694736622  1.0000
  H   H55       1.0  0.6554000918509029  0.6495978448631001  0.6038101391476524  1.0000
  H   H56       1.0  0.5837311605538565  0.6567327597028421  0.6238981051965051  1.0000
  O   O8        1.0  0.22114569687750885  0.5549205606183785  0.1492425891544893  1.0000
  C   C22       1.0  0.21156826547636848  0.5584629149545827  0.095359080307181  1.0000
  C   C23       1.0  0.21233203533587183  0.6197585075726099  0.0786236592535801  1.0000
  C   C24       1.0  0.2544079209198472  0.528047038565439  0.06539174762856487  1.0000
  H   H57       1.0  0.24060972368038694  0.5214828984950152  0.1554583942664764  1.0000
  H   H58       1.0  0.1701658425883486  0.5419166209222028  0.08595201452039467  1.0000
  H   H59       1.0  0.24970316056665837  0.6369664712234979  0.09052968526887666  1.0000
  H   H60       1.0  0.2025314432347638  0.6204934009135707  0.03667071766503729  1.0000
  H   H61       1.0  0.18191039501501527  0.6463901743192477  0.09503491918928109  1.0000
  H   H62       1.0  0.25522553757573824  0.48644849249322275  0.07803741737749441  1.0000
  H   H63       1.0  0.2441709809769687  0.5317256023696066  0.023767261875529033  1.0000
  H   H64       1.0  0.2927181212853404  0.548370905925459  0.07429890645682735  1.0000
  O   O9        1.0  0.4940979845633257  0.31613872378247115  0.9724152465800574  1.0000
  C   C25       1.0  0.5001917625967214  0.2646107138616463  0.9496112456084386  1.0000
  C   C26       1.0  0.5603367422752111  0.2469890974524854  0.9483938551978923  1.0000
  C   C27       1.0  0.4653877218119156  0.22878297876445491  0.9787661991110563  1.0000
  H   H65       1.0  0.4625906133088136  0.33027915128641205  0.9560364461367308  1.0000
  H   H66       1.0  0.4875971713982782  0.2660071444129159  0.9093652377634023  1.0000
  H   H67       1.0  0.5571648302952991  0.20630691194798925  0.9338337839616775  1.0000
  H   H68       1.0  0.5836427687365464  0.27509182207928495  0.9250664800018991  1.0000
  H   H69       1.0  0.5760707851659476  0.24625505701118822  0.9909715014551851  1.0000
  H   H70       1.0  0.4678163593696964  0.18792235989074427  0.96758390836196  1.0000
  H   H71       1.0  0.47158020558540725  0.2283103602213236  0.021933276969890114  1.0000
  H   H72       1.0  0.4246705169231875  0.24374513712140555  0.9721539006277358  1.0000
  O   O10       1.0  0.6688136078823437  0.8487810282772856  0.6208633506159311  1.0000
  C   C28       1.0  0.6615264812683613  0.8642110651228733  0.5674837535781548  1.0000
  C   C29       1.0  0.712846707335742  0.8623390203426606  0.5377654194890373  1.0000
  C   C30       1.0  0.6221060719476768  0.8286630675962053  0.5422037904496556  1.0000
  H   H73       1.0  0.6790079255065059  0.811133691987452  0.6278025975489195  1.0000
  H   H74       1.0  0.6422340435634107  0.9030161051493082  0.5674993769504553  1.0000
  H   H75       1.0  0.7441675874067347  0.882893670025377  0.5527173585572908  1.0000
  H   H76       1.0  0.7265885364563124  0.8224265582951802  0.5420699321218837  1.0000
  H   H77       1.0  0.7060457176251543  0.8724515061209119  0.4958566481625163  1.0000
  H   H78       1.0  0.5809389058252041  0.8304410703473499  0.5555407836870776  1.0000
  H   H79       1.0  0.6294037403219774  0.8372895361511034  0.5007044435667113  1.0000
  H   H80       1.0  0.6324204066701042  0.7864628793416688  0.5486682005051428  1.0000
  O   O11       1.0  0.6233600173594717  0.46224387082737123  0.5053776545847892  1.0000
  C   C31       1.0  0.5915734011883678  0.46217796534189276  0.5522436970510741  1.0000
  C   C32       1.0  0.6175809012491206  0.43264494746263216  0.5985460937168381  1.0000
  C   C33       1.0  0.5795893255097246  0.5227512919078258  0.5647915704219267  1.0000
  H   H81       1.0  0.6474093937911601  0.49344223076821875  0.5100487419025859  1.0000
  H   H82       1.0  0.5521835554973088  0.443769675238065  0.5446886263416378  1.0000
  H   H83       1.0  0.5911783484023404  0.42003852541263065  0.6334853200923888  1.0000
  H   H84       1.0  0.6309599855819717  0.395699248981699  0.5796417313231841  1.0000
  H   H85       1.0  0.6551480741158816  0.44843207888418113  0.6129208487431961  1.0000
  H   H86       1.0  0.5498336403796723  0.5262026376748844  0.5973135352114344  1.0000
  H   H87       1.0  0.6181187616462438  0.5456084187867459  0.5677399427678947  1.0000
  H   H88       1.0  0.5576075488402915  0.5396203625375324  0.5300353468901522  1.0000
  O   O12       1.0  0.5624310372005056  0.143815060154719  0.5656908483437962  1.0000
  C   C34       1.0  0.6044834885212749  0.16498560041441632  0.5963821767311672  1.0000
  C   C35       1.0  0.5882446892714095  0.21970647342759034  0.6109935543554008  1.0000
  C   C36       1.0  0.6101387946149964  0.13159221988729658  0.6445807733294362  1.0000
  H   H89       1.0  0.5695251122619474  0.1553049689492181  0.5293384113616352  1.0000
  H   H90       1.0  0.6423717695625244  0.16241407929969565  0.5718510241189796  1.0000
  H   H91       1.0  0.6140129889494289  0.23542148055212736  0.6423340010182578  1.0000
  H   H92       1.0  0.5898369209328767  0.24451163745269927  0.5740610899348432  1.0000
  H   H93       1.0  0.5438053885001564  0.2205560756101684  0.6226961103207269  1.0000
  H   H94       1.0  0.602627976873004  0.09205440027962665  0.6283712108438453  1.0000
  H   H95       1.0  0.6511305039681998  0.13792805203810435  0.6616669377392653  1.0000
  H   H96       1.0  0.5774923378867507  0.14014579633667412  0.6727296280981838  1.0000
  O   O13       1.0  0.5570098125010464  0.05307815048686288  0.06389636918526685  1.0000
  C   C37       1.0  0.5163059935643822  0.019007073780002565  0.07576046514213367  1.0000
  C   C38       1.0  0.4611152515657338  0.041485714405103576  0.053553783404050224  1.0000
  C   C39       1.0  0.5225294206967201  0.9619357882237939  0.056012037057704175  1.0000
  H   H97       1.0  0.5812997165784413  0.05138811290438548  0.0944592146996693  1.0000
  H   H98       1.0  0.5132486767061323  0.01484301523232689  0.11900678672384327  1.0000
  H   H99       1.0  0.42645299451480523  0.014685501961016357  0.0547618929143403  1.0000
  H   H100      1.0  0.44917015797437515  0.07714622112726319  0.07225253296158585  1.0000
  H   H101      1.0  0.4644099488898123  0.05275316947194363  0.010502331701297045  1.0000
  H   H102      1.0  0.5597090868519605  0.9424285891906682  0.06737779507333048  1.0000
  H   H103      1.0  0.4929919279769864  0.9376923550505905  0.0746697094564737  1.0000
  H   H104      1.0  0.518954758362208  0.9601695594642299  0.01132387288850753  1.0000
  O   O14       1.0  0.2940308622996833  0.8638546150925318  0.47534655483299826  1.0000
  C   C40       1.0  0.270856627325816  0.9103318239819451  0.49588152380627293  1.0000
  C   C41       1.0  0.31363779134774566  0.9551360687894208  0.5077820232703224  1.0000
  C   C42       1.0  0.2238868161956974  0.9316313783378981  0.46280512771358956  1.0000
  H   H105      1.0  0.3124313407173609  0.8779407596085088  0.4420090398302813  1.0000
  H   H106      1.0  0.25169247368272357  0.9017601879289202  0.5339347958023177  1.0000
  H   H107      1.0  0.32794254577737303  0.9753106822869011  0.47195720831072063  1.0000
  H   H108      1.0  0.2974351490792859  0.9847575166577248  0.5349346379505431  1.0000
  H   H109      1.0  0.3459167250620447  0.9377725561209931  0.5306020265482181  1.0000
  H   H110      1.0  0.19205427903193345  0.9051003517634605  0.4630671945549976  1.0000
  H   H111      1.0  0.2096868352212557  0.969381478102591  0.4800534766605795  1.0000
  H   H112      1.0  0.23917897515048295  0.9429533668947011  0.4221984606093823  1.0000
  O   O15       1.0  0.588891039300994  0.6089794224555566  0.26777263359514913  1.0000
  C   C43       1.0  0.6037795755180269  0.6090007711902146  0.21165840166236133  1.0000
  C   C44       1.0  0.6371880008771157  0.6584855078762536  0.20012142433747288  1.0000
  C   C45       1.0  0.6307252596420894  0.5541725465393751  0.19644325855314834  1.0000
  H   H113      1.0  0.6050004168918276  0.5763018331002874  0.28181107457805005  1.0000
  H   H114      1.0  0.5678480152946465  0.6110635171780204  0.18748828724332134  1.0000
  H   H115      1.0  0.6158366856509455  0.6974683935862607  0.20007709542418498  1.0000
  H   H116      1.0  0.6719006919329107  0.6593869468748932  0.22495624183494378  1.0000
  H   H117      1.0  0.6549605968292547  0.6560290367630156  0.16187128957990096  1.0000
  H   H118      1.0  0.6680857671667134  0.546101229779117  0.218133827443854  1.0000
  H   H119      1.0  0.6060404924444664  0.5181398149205074  0.20888535367746328  1.0000
  H   H120      1.0  0.6372096915668836  0.5552624111536382  0.1529492139540245  1.0000
  O   O16       1.0  0.6724093537374924  0.4235335551497351  0.31440046138418626  1.0000
  C   C46       1.0  0.7144335921712057  0.39767235143744367  0.2871113529361141  1.0000
  C   C47       1.0  0.765408820523449  0.4013693442363018  0.32286502970181136  1.0000
  C   C48       1.0  0.697223884151635  0.341418743770948  0.2809586850637041  1.0000
  H   H121      1.0  0.6554341442178938  0.39476883883042846  0.33613824075641413  1.0000
  H   H122      1.0  0.7157745265891158  0.41705913455721666  0.2471149926000409  1.0000
  H   H123      1.0  0.7698363841121054  0.4443031749122925  0.3283552692925158  1.0000
  H   H124      1.0  0.761414305704997  0.3824553502395928  0.36062275148685524  1.0000
  H   H125      1.0  0.799770522094861  0.38284645940843415  0.3008771097690667  1.0000
  H   H126      1.0  0.7001063510121245  0.31950158270050893  0.31916079381657886  1.0000
  H   H127      1.0  0.6551150078519984  0.33657280645539095  0.2701343231019885  1.0000
  H   H128      1.0  0.7258062425704077  0.32171119363655193  0.25440266912555465  1.0000
  O   O17       1.0  0.7307202464482134  0.6515677237955007  0.5228284974191976  1.0000
  C   C49       1.0  0.731562302953907  0.6981356378683047  0.48386400253214784  1.0000
  C   C50       1.0  0.7794314106941393  0.686332213893246  0.447425904204467  1.0000
  C   C51       1.0  0.683134554284047  0.6986991321747597  0.44857939910986105  1.0000
  H   H129      1.0  0.7264464115625698  0.6211569290183391  0.5012388911723131  1.0000
  H   H130      1.0  0.7371971700726119  0.7385013220493628  0.502330500155259  1.0000
  H   H131      1.0  0.767352610269075  0.663986061787366  0.4128189723093431  1.0000
  H   H132      1.0  0.7982909511229517  0.7241151528795342  0.430142668679067  1.0000
  H   H133      1.0  0.81076639720866  0.6643243098653051  0.4719405614588239  1.0000
  H   H134      1.0  0.6921974844006707  0.7244003128242829  0.4145108206634141  1.0000
  H   H135      1.0  0.6737314798291133  0.6563606866978224  0.4392374141400671  1.0000
  H   H136      1.0  0.647489860202365  0.7117521782152065  0.4687248895630219  1.0000
  O   O18       1.0  0.29127904932948806  0.2849600636369319  0.6009864488038441  1.0000
  C   C52       1.0  0.30126211344870735  0.23675505856133  0.5728602704303496  1.0000
  C   C53       1.0  0.2595366483517169  0.20099675546109347  0.5903345479255863  1.0000
  C   C54       1.0  0.30501572128985444  0.24969311185789386  0.5103385659559848  1.0000
  H   H137      1.0  0.2554257562688091  0.2943428128368041  0.5888108003296996  1.0000
  H   H138      1.0  0.3370326645062118  0.21559865297633832  0.5841323562055734  1.0000
  H   H139      1.0  0.26946292684871453  0.1615168873039967  0.5725762862545078  1.0000
  H   H140      1.0  0.2525465129316638  0.1969066435130678  0.6342238162882925  1.0000
  H   H141      1.0  0.22229697344853291  0.21623135144221553  0.5758194501482794  1.0000
  H   H142      1.0  0.3183411484921173  0.2172388533849028  0.4845131208076337  1.0000
  H   H143      1.0  0.26880999776186426  0.26586938024206896  0.49621666287606747  1.0000
  H   H144      1.0  0.3310038444245422  0.2837866037222084  0.5089081021235909  1.0000
  O   O19       1.0  0.4748886304190373  0.7810254244984003  0.9914428495953208  1.0000
  C   C55       1.0  0.4456739902424747  0.8283623602250004  0.9786747356620903  1.0000
  C   C56       1.0  0.4174841442013606  0.8197220890099511  0.9284345529401185  1.0000
  C   C57       1.0  0.4045945717893144  0.8413287969885528  0.021970893622468513  1.0000
  H   H145      1.0  0.4830606628997175  0.7636535697157797  0.9586116074828831  1.0000
  H   H146      1.0  0.47271898767338655  0.8629464260590717  0.9744291132658804  1.0000
  H   H147      1.0  0.43827541608433035  0.8085474580553167  0.8932204049943829  1.0000
  H   H148      1.0  0.38741660316827603  0.7878135213084778  0.9335277679362025  1.0000
  H   H149      1.0  0.39661123013827915  0.8569386513263056  0.9175564579019704  1.0000
  H   H150      1.0  0.3749677015467851  0.8087381206935546  0.028767408890205015  1.0000
  H   H151      1.0  0.4284213565184333  0.851159004787912  0.05676571990992896  1.0000
  H   H152      1.0  0.37790519057494704  0.8733297378986333  0.012700085018312102  1.0000
  O   O20       1.0  0.19149870973396166  0.9489104046344685  0.9711923196777086  1.0000
  C   C58       1.0  0.24261365497977827  0.9637315184372505  0.9804050348801588  1.0000
  C   C59       1.0  0.24344626915059414  0.014463071566287455  0.016595021315893632  1.0000
  C   C60       1.0  0.2762199292035019  0.9188722136879915  0.002211127340412178  1.0000
  H   H153      1.0  0.19058871947184122  0.9100440095112502  0.969195896678713  1.0000
  H   H154      1.0  0.2618206206073862  0.9747890516359651  0.9436240239682665  1.0000
  H   H155      1.0  0.21952462686923238  0.04926040048800595  0.001129491518008896  1.0000
  H   H156      1.0  0.22091946494350762  0.00158574750913143  0.052617248948553685  1.0000
  H   H157      1.0  0.2850955903875423  0.026997900144941633  0.026556964140365125  1.0000
  H   H158      1.0  0.27838797907453605  0.8848803099272516  0.9749173738695565  1.0000
  H   H159      1.0  0.3162274189855358  0.9319628767786386  0.008665602407089912  1.0000
  H   H160      1.0  0.25973601374750194  0.9064782205142178  0.03899259352974749  1.0000
  O   O21       1.0  0.15989058418967203  0.577265727018773  0.24468487588759874  1.0000
  C   C61       1.0  0.18536187358789574  0.6221819120243424  0.2701260565360176  1.0000
  C   C62       1.0  0.22084722692654044  0.5968966784133062  0.31156497756530865  1.0000
  C   C63       1.0  0.21972892198531108  0.65091299347999  0.22735770986637602  1.0000
  H   H161      1.0  0.18386758979857165  0.5694796461491078  0.21395629069575925  1.0000
  H   H162      1.0  0.15424900520787974  0.6496335656529295  0.2879997284543108  1.0000
  H   H163      1.0  0.19735584648123736  0.5925321001725385  0.34767899111855594  1.0000
  H   H164      1.0  0.23556043918012562  0.5582851829909656  0.29794309039240363  1.0000
  H   H165      1.0  0.25090807518240416  0.6267286211233559  0.3229745809856024  1.0000
  H   H166      1.0  0.2534907639148188  0.6237579139396224  0.21651190413829166  1.0000
  H   H167      1.0  0.194449641574165  0.6571578452928302  0.19097213067448754  1.0000
  H   H168      1.0  0.2385307479463939  0.6882524174839774  0.24021154240272613  1.0000
  O   O22       1.0  0.36974089343695055  0.8948038010924811  0.22083203974581628  1.0000
  C   C64       1.0  0.4012822796819647  0.9229974774284485  0.18611026699849784  1.0000
  C   C65       1.0  0.36674167037802885  0.938210383117425  0.13872829141007895  1.0000
  C   C66       1.0  0.4261448170149378  0.9719335841195136  0.2146478984841396  1.0000
  H   H169      1.0  0.37621997853574146  0.8592779491354017  0.2100107685016231  1.0000
  H   H170      1.0  0.43669402956893594  0.8968156200238669  0.17124607559955685  1.0000
  H   H171      1.0  0.3430052492748132  0.9075123802434554  0.1236160736079692  1.0000
  H   H172      1.0  0.33828899922993155  0.9676943320289033  0.15321905430984953  1.0000
  H   H173      1.0  0.39016483236939503  0.9536635512380865  0.10713069848079657  1.0000
  H   H174      1.0  0.44996291767475394  0.9608997889673819  0.24961651272040875  1.0000
  H   H175      1.0  0.44817990965509374  0.9953066154917679  0.18733317481498007  1.0000
  H   H176      1.0  0.39263245201446034  0.9950062119039397  0.22809571301072587  1.0000
  O   O23       1.0  0.9001977994056144  0.8979112107957321  0.39467096690412956  1.0000
  C   C67       1.0  0.8711945268515722  0.8743743638399674  0.43592785170926335  1.0000
  C   C68       1.0  0.9041050218321969  0.8356660203685465  0.47109334819054843  1.0000
  C   C69       1.0  0.8488684721632214  0.9170980786081888  0.47434280684169783  1.0000
  H   H177      1.0  0.9376930754152737  0.8933834619146961  0.40369021265308525  1.0000
  H   H178      1.0  0.8366338956783292  0.8546286280555949  0.41927162706149396  1.0000
  H   H179      1.0  0.8805126600548281  0.8275228826970309  0.5080315383710858  1.0000
  H   H180      1.0  0.9178116609886027  0.7995674973817779  0.4512705583888704  1.0000
  H   H181      1.0  0.9423100125509282  0.8541674423441789  0.4855120150244847  1.0000
  H   H182      1.0  0.8242161644579727  0.9489218565520503  0.45936572691566646  1.0000
  H   H183      1.0  0.826047938457283  0.9026767950224173  0.5088127706056608  1.0000
  H   H184      1.0  0.8823324509132696  0.9415767116869618  0.491911543471712  1.0000
  O   O24       1.0  0.854829680960085  0.18694001789170156  0.9497253854526577  1.0000
  C   C70       1.0  0.8503842188047808  0.19057226228574378  0.8932970037342458  1.0000
  C   C71       1.0  0.8930602300399262  0.229932605998507  0.872610088200752  1.0000
  C   C72       1.0  0.8583622518015459  0.1356662818143789  0.8753785671087106  1.0000
  H   H185      1.0  0.8244681066447721  0.170326757120136  0.9676532266389596  1.0000
  H   H186      1.0  0.8099028778507311  0.20634043348931533  0.8814643815642678  1.0000
  H   H187      1.0  0.9317063086549223  0.21691740405054885  0.8824845107958216  1.0000
  H   H188      1.0  0.8859358565628803  0.23712007854339678  0.8310958006628605  1.0000
  H   H189      1.0  0.8852230324480416  0.27016187235755784  0.8829924143348283  1.0000
  H   H190      1.0  0.8663767642513378  0.13185888443444396  0.8296127413512078  1.0000
  H   H191      1.0  0.8965388785367774  0.12110509206685698  0.8929474552327911  1.0000
  H   H192      1.0  0.8273279730558525  0.10642128715747907  0.886003809802796  1.0000
  O   O25       1.0  0.49683188027862857  0.03672792265192104  0.5583303457180506  1.0000
  C   C73       1.0  0.5177312246883501  0.987987560211076  0.5402835113107022  1.0000
  C   C74       1.0  0.5532844553210662  0.0015850647917783345  0.49402013450633386  1.0000
  C   C75       1.0  0.5451049900882122  0.9616333176688808  0.5873259966493641  1.0000
  H   H193      1.0  0.5250411414175409  0.048687502018406326  0.5829511418622995  1.0000
  H   H194      1.0  0.485049729887628  0.9607835254228813  0.5279980077693899  1.0000
  H   H195      1.0  0.5764633353177171  0.039177492633894584  0.5031559853572778  1.0000
  H   H196      1.0  0.5874585277141628  0.9773353937211746  0.4879008366811838  1.0000
  H   H197      1.0  0.5300155146866444  0.0031497285094315153  0.4569738717990447  1.0000
  H   H198      1.0  0.5755504821756069  0.9848640722557042  0.602861110335892  1.0000
  H   H199      1.0  0.5161221942832978  0.957785250295334  0.6225428746692679  1.0000
  H   H200      1.0  0.5655604405816566  0.9238044195181995  0.5770933414835372  1.0000
  O   O26       1.0  0.896841329879043  0.734751013279782  0.24522518205900218  1.0000
  C   C76       1.0  0.8940189286264746  0.772966849144586  0.2875900765708238  1.0000
  C   C77       1.0  0.8710878953077488  0.7471786035431036  0.3403044202210157  1.0000
  C   C78       1.0  0.952153037304953  0.7937249028719842  0.29942906944402375  1.0000
  H   H201      1.0  0.9336243885453723  0.7217978487483381  0.24721447608920077  1.0000
  H   H202      1.0  0.8650359053816499  0.8026036166018138  0.2797167983409999  1.0000
  H   H203      1.0  0.8739942517088871  0.7784200788542212  0.3714557971202513  1.0000
  H   H204      1.0  0.829772006148401  0.7370181108460219  0.3339542263532142  1.0000
  H   H205      1.0  0.8913107431639697  0.7110541432612487  0.35097672230017923  1.0000
  H   H206      1.0  0.9691037505123938  0.7618625981182808  0.3247777627662581  1.0000
  H   H207      1.0  0.974208569317748  0.7995085693710304  0.2617232795067521  1.0000
  H   H208      1.0  0.9551403917382055  0.8301556070168467  0.320416142437191  1.0000
  O   O27       1.0  0.00229607587607099  0.7035953893776057  0.22334929735606193  1.0000
  C   C79       1.0  0.02348896051646719  0.7014846746427025  0.1705892028955205  1.0000
  C   C80       1.0  0.9942760392607652  0.6590182107155506  0.13945503230264636  1.0000
  C   C81       1.0  0.020234664791001625  0.755667497592954  0.14459603632058382  1.0000
  H   H209      1.0  0.01918960742955809  0.6800346528811919  0.24756884059099404  1.0000
  H   H210      1.0  0.06648565089172484  0.6905142063959473  0.17573326860455826  1.0000
  H   H211      1.0  0.007420394870378484  0.618196194597526  0.14976676021379415  1.0000
  H   H212      1.0  0.9523502226648822  0.6598730841759101  0.1470902950639551  1.0000
  H   H213      1.0  0.9997650843943183  0.6656181475216482  0.09611039306012835  1.0000
  H   H214      1.0  0.9799202058830293  0.7678595277049741  0.14502974872227475  1.0000
  H   H215      1.0  0.044476917821453604  0.7842933125418622  0.16509115161866586  1.0000
  H   H216      1.0  0.03260757921560529  0.7542972886366585  0.1024212927072019  1.0000
  O   O28       1.0  0.6092529408169243  0.375622014756586  0.4154441127805411  1.0000
  C   C82       1.0  0.5768607388463141  0.3275151849930375  0.4190771345260251  1.0000
  C   C83       1.0  0.5731622291186835  0.3120720655811405  0.47948998235412454  1.0000
  C   C84       1.0  0.5215083053620587  0.3336320183556629  0.3952935784895091  1.0000
  H   H217      1.0  0.6178811915146158  0.38903977779096727  0.4512162944867731  1.0000
  H   H218      1.0  0.5995163961126567  0.2942062240372419  0.40307586763367653  1.0000
  H   H219      1.0  0.5476413212387683  0.2769649285108271  0.4875554592368255  1.0000
  H   H220      1.0  0.6132240587486588  0.30920571474688296  0.49412782809910916  1.0000
  H   H221      1.0  0.5533923759561297  0.34841225420841143  0.4988072197569876  1.0000
  H   H222      1.0  0.49603688315801325  0.2972265878744001  0.3967181272937461  1.0000
  H   H223      1.0  0.49967180076624607  0.3647636385996127  0.41533270301049  1.0000
  H   H224      1.0  0.5269970657981018  0.33894710456285243  0.35273257948173536  1.0000
  O   O29       1.0  0.08547968982008453  0.5624526897185402  0.7088562876285421  1.0000
  C   C85       1.0  0.12383320476458035  0.5277885745789738  0.7367342403901352  1.0000
  C   C86       1.0  0.10826939468237615  0.5195496505097076  0.795935802899267  1.0000
  C   C87       1.0  0.12549097172523835  0.4747866248121308  0.705086563761163  1.0000
  H   H225      1.0  0.06377776881497449  0.5833477871253212  0.7359693893958135  1.0000
  H   H226      1.0  0.1627766912815931  0.5432698792432249  0.7390187812455804  1.0000
  H   H227      1.0  0.07046656703022491  0.5008162326683611  0.8073798189322837  1.0000
  H   H228      1.0  0.14338565161594624  0.4973263978655715  0.8140255634087085  1.0000
  H   H229      1.0  0.10406699183345808  0.5579032127712477  0.8163814698979681  1.0000
  H   H230      1.0  0.1534519412469606  0.48070384625319434  0.6729259027764465  1.0000
  H   H231      1.0  0.13998008489041477  0.44167830005273795  0.7289685603237536  1.0000
  H   H232      1.0  0.08407532431977628  0.4655102037703276  0.692095327299698  1.0000
  O   O30       1.0  0.08336725934529847  0.9519033707101234  0.1579965930486036  1.0000
  C   C88       1.0  0.032555884350676696  0.9299196600062084  0.15322385122432147  1.0000
  C   C89       1.0  0.023812678285590902  0.8997786292414054  0.20399516339446247  1.0000
  C   C90       1.0  0.9900883206004619  0.9730903021506296  0.14124168095136042  1.0000
  H   H233      1.0  0.08438554003114766  0.977613804028725  0.12852245586304617  1.0000
  H   H234      1.0  0.031111778497508756  0.9039977835168644  0.11956120848408576  1.0000
  H   H235      1.0  0.9846339723795198  0.8791345638641603  0.20033254503659417  1.0000
  H   H236      1.0  0.053710678372807394  0.8714985710684543  0.2107136954017635  1.0000
  H   H237      1.0  0.02115329856495819  0.9275071003029264  0.23593080559057353  1.0000
  H   H238      1.0  0.9509864221859196  0.9600984589176557  0.14960535302807515  1.0000
  H   H239      1.0  0.9953289886280475  0.011261316448214265  0.16274864937209216  1.0000
  H   H240      1.0  0.9917663849826261  0.9811170247835783  0.09795645322821042  1.0000
  O   O31       1.0  0.8312939719991164  0.8818034638536263  0.1194282225394664  1.0000
  C   C91       1.0  0.7918119801417381  0.8958347758677301  0.16064944341474827  1.0000
  C   C92       1.0  0.8185617303497813  0.890440702006375  0.21598797960476374  1.0000
  C   C93       1.0  0.7721119001360047  0.9525510480026811  0.1528905324690539  1.0000
  H   H241      1.0  0.8306029137246451  0.8412550042687024  0.11731261585838046  1.0000
  H   H242      1.0  0.7593066244300164  0.8700290114288206  0.15812059193578806  1.0000
  H   H243      1.0  0.8409389013627294  0.8538606680531287  0.21316730363501163  1.0000
  H   H244      1.0  0.845070232420654  0.9238901949812967  0.21396575171888144  1.0000
  H   H245      1.0  0.7902951718488491  0.889159074533189  0.24977312338927804  1.0000
  H   H246      1.0  0.8059970204612326  0.9760228996302309  0.1414958883919518  1.0000
  H   H247      1.0  0.7456437451895006  0.9499794509421162  0.12005547954525174  1.0000
  H   H248      1.0  0.7508005904767154  0.9666012442889184  0.19017620470836438  1.0000
  O   O32       1.0  0.03236134887200799  0.25127607176441596  0.4308107849466414  1.0000
  C   C94       1.0  0.06443420095359013  0.24034985648510443  0.3879358067331762  1.0000
  C   C95       1.0  0.03316068087007467  0.235634193728243  0.33305096664242556  1.0000
  C   C96       1.0  0.10647528544793287  0.28440705423081775  0.38051330446502735  1.0000
  H   H249      1.0  0.005869077342566854  0.22423418413689317  0.43048319234897575  1.0000
  H   H250      1.0  0.08592218092516667  0.19937887080442795  0.392265156838046  1.0000
  H   H251      1.0  0.9930710296133086  0.22460766035073007  0.3396164721475557  1.0000
  H   H252      1.0  0.030014275162761506  0.2742688204256574  0.313387802281295  1.0000
  H   H253      1.0  0.053535306694693245  0.2098457019986059  0.3052159399829253  1.0000
  H   H254      1.0  0.09261219705727945  0.32253455513828927  0.3634847034264838  1.0000
  H   H255      1.0  0.12523951344468173  0.28564336668760826  0.41674064273694117  1.0000
  H   H256      1.0  0.13853021550315606  0.27247690089678417  0.3533296335012496  1.0000
  O   O33       1.0  0.9613652976275827  0.39281769227847296  0.19723876781118407  1.0000
  C   C97       1.0  0.9680431222647831  0.3856369315966707  0.2534362157128336  1.0000
  C   C98       1.0  0.952466030805159  0.43734511965301487  0.2820972393141508  1.0000
  C   C99       1.0  0.9403070673546445  0.3346995859062714  0.26854986535256054  1.0000
  H   H257      1.0  0.974321268179039  0.35801755733674234  0.18245293860665526  1.0000
  H   H258      1.0  0.009868128108533103  0.37907995866677696  0.2641726216511931  1.0000
  H   H259      1.0  0.9114020838326108  0.4455550347955392  0.27516969122214335  1.0000
  H   H260      1.0  0.9533920424594229  0.43463344545314464  0.3258477574029025  1.0000
  H   H261      1.0  0.9790735805712377  0.46830662995369865  0.2689903464773164  1.0000
  H   H262      1.0  0.9414949557868948  0.32894743136584725  0.31367296222604374  1.0000
  H   H263      1.0  0.8973294389886529  0.33839839901965646  0.2601465002400304  1.0000
  H   H264      1.0  0.9569635194423242  0.2984792251090885  0.2494647371377446  1.0000
  O   O34       1.0  0.4767416012613172  0.11216009351995032  0.4801782719850722  1.0000
  C   C100      1.0  0.43717265856955717  0.13986906399489565  0.5110534000511499  1.0000
  C   C101      1.0  0.44715291666876417  0.20065535980565438  0.5049618216638796  1.0000
  C   C102      1.0  0.3855253325584424  0.12042038580736336  0.49595592329763244  1.0000
  H   H265      1.0  0.4813407539479011  0.07871207969969013  0.50046782176408  1.0000
  H   H266      1.0  0.4419981946842084  0.12707966772991802  0.5522717958205527  1.0000
  H   H267      1.0  0.4413752415413413  0.21096747659133414  0.4623901667782102  1.0000
  H   H268      1.0  0.4170270539988189  0.2221166819906806  0.5289960677748216  1.0000
  H   H269      1.0  0.487401882425501  0.2078505112308726  0.5169742235519118  1.0000
  H   H270      1.0  0.38631179789906567  0.07616957665702255  0.4957541876757892  1.0000
  H   H271      1.0  0.3534933349671827  0.13641450464504826  0.5194765023354769  1.0000
  H   H272      1.0  0.37820161277147823  0.13692822857812334  0.4550558296827057  1.0000
  O   O35       1.0  0.9572793189625425  0.17110078444006982  0.4349872031834289  1.0000
  C   C103      1.0  0.9611932154781014  0.11320599940721307  0.45032736905704496  1.0000
  C   C104      1.0  0.019925174215780217  0.10141824612149893  0.440796617311762  1.0000
  C   C105      1.0  0.9463995555015559  0.10163321580371772  0.5074772207878652  1.0000
  H   H273      1.0  0.9218285488165535  0.183848440312417  0.44293133530726936  1.0000
  H   H274      1.0  0.9340707095476855  0.09022283503198229  0.42306216923548834  1.0000
  H   H275      1.0  0.03282168593082391  0.0630680827347024  0.46261234137507024  1.0000
  H   H276      1.0  0.0296680896232695  0.0959999125332073  0.3986312019156805  1.0000
  H   H277      1.0  0.04176812546065878  0.13557747289135913  0.45509090592691515  1.0000
  H   H278      1.0  0.9029951731227376  0.10410084499171632  0.5136800192793871  1.0000
  H   H279      1.0  0.9574573165378029  0.05951785030943725  0.5182411755841718  1.0000
  H   H280      1.0  0.9702041950587085  0.1277306436964196  0.5316870755597649  1.0000
  O   O36       1.0  0.39689930982299526  0.551976852778683  0.6134513145598788  1.0000
  C   C106      1.0  0.38646465421892595  0.5487196961613386  0.5572477237925397  1.0000
  C   C107      1.0  0.360418361736688  0.6043159949322219  0.5404793692808774  1.0000
  C   C108      1.0  0.4363808086288196  0.5333752832847821  0.5259437943568205  1.0000
  H   H281      1.0  0.39041612961295225  0.5882082861618491  0.6271248496782903  1.0000
  H   H282      1.0  0.3566850032047583  0.5201522406234022  0.5505654624865995  1.0000
  H   H283      1.0  0.32410354140710523  0.6086310870994975  0.5626715274697232  1.0000
  H   H284      1.0  0.38717990502217836  0.6364231502804162  0.5561300633969304  1.0000
  H   H285      1.0  0.3544864270805875  0.6072808244642871  0.49821373042068307  1.0000
  H   H286      1.0  0.46919092904888754  0.5607380516468831  0.5388660537011513  1.0000
  H   H287      1.0  0.4436230759014715  0.4913620414912077  0.5325943166618505  1.0000
  H   H288      1.0  0.4311524839878349  0.5392396058608324  0.4845478558919778  1.0000
  O   O37       1.0  0.033231366569891764  0.46644542992193666  0.05103727968553528  1.0000
  C   C109      1.0  0.07726312921738375  0.44962273556233284  0.0778688287368452  1.0000
  C   C110      1.0  0.08198013792546267  0.4768844848182572  0.13428846077828804  1.0000
  C   C111      1.0  0.07565234529833763  0.3860636856094972  0.08473620744153178  1.0000
  H   H289      1.0  0.0022401566726684245  0.4625641829621736  0.07525740623226539  1.0000
  H   H290      1.0  0.11455008140262307  0.4625022210938812  0.05435349234798224  1.0000
  H   H291      1.0  0.09825901868805326  0.5158730207400221  0.12577866293304482  1.0000
  H   H292      1.0  0.04461359608601547  0.47724749481999773  0.15659933743122584  1.0000
  H   H293      1.0  0.10978413653258358  0.4586703838641437  0.1613719563902417  1.0000
  H   H294      1.0  0.03914097990738216  0.3716450947214051  0.1018967709450983  1.0000
  H   H295      1.0  0.08079504597029133  0.36755380740209476  0.0443438412189679  1.0000
  H   H296      1.0  0.10981223530206215  0.3745099667986234  0.1110476189133448  1.0000
  O   O38       1.0  0.17844653567904514  0.22374059579308037  0.19316718028718188  1.0000
  C   C112      1.0  0.12692138863821018  0.22548130396564553  0.17216264491894293  1.0000
  C   C113      1.0  0.09188700132466215  0.25969957246620834  0.20413355302506278  1.0000
  C   C114      1.0  0.13194204354332814  0.23970498521255912  0.11346480495116597  1.0000
  H   H297      1.0  0.17114386163860662  0.20780115796320237  0.22880620507123955  1.0000
  H   H298      1.0  0.10846302477524805  0.18429836337442848  0.172295763669384  1.0000
  H   H299      1.0  0.09938175075508922  0.25983070071981207  0.24582532600079435  1.0000
  H   H300      1.0  0.0974675289930478  0.29931417133422944  0.19143445398307743  1.0000
  H   H301      1.0  0.04998606991546902  0.25303454569780737  0.19593137402046673  1.0000
  H   H302      1.0  0.13250545236100555  0.2832161132527782  0.1059396624710462  1.0000
  H   H303      1.0  0.17214747682408532  0.22441007709773883  0.09862838030714915  1.0000
  H   H304      1.0  0.10399251639625436  0.22183294394299347  0.09138222667491103  1.0000
  O   O39       1.0  0.22317901643524088  0.24094746001852782  0.933401266017138  1.0000
  C   C115      1.0  0.24676654352402674  0.2062087366359359  0.9707491084787846  1.0000
  C   C116      1.0  0.2000021841930272  0.1784887408920517  0.9997789250994219  1.0000
  C   C117      1.0  0.28411594068855667  0.16548540796738498  0.9421656884086822  1.0000
  H   H305      1.0  0.2044636104828752  0.21881045680317615  0.9069105106212249  1.0000
  H   H306      1.0  0.26566117928291516  0.2272212351843912  0.0030104855815455966  1.0000
  H   H307      1.0  0.20755054343699836  0.16650477893336366  0.04075588306585498  1.0000
  H   H308      1.0  0.16331574613586763  0.20205143011119192  0.9977668787281259  1.0000
  H   H309      1.0  0.18530755282582087  0.14182441023274742  0.9777589627800126  1.0000
  H   H310      1.0  0.2910762902280484  0.17906613289036866  0.9011976037797288  1.0000
  H   H311      1.0  0.3234731940814197  0.16464191087638536  0.9610895418459785  1.0000
  H   H312      1.0  0.2712285488367695  0.1257000828416556  0.945613242052621  1.0000
  O   O40       1.0  0.5901142314173642  0.7140404356455494  0.3082180831794367  1.0000
  C   C118      1.0  0.5351262866918887  0.7138314191632208  0.32371425255279085  1.0000
  C   C119      1.0  0.5268552442901137  0.7679161805213741  0.3495157322146487  1.0000
  C   C120      1.0  0.4961842407601819  0.7026851529873307  0.27795195370438663  1.0000
  H   H313      1.0  0.594534324877358  0.689118970301829  0.2783261126355767  1.0000
  H   H314      1.0  0.5312976348137621  0.6811212188215112  0.35358859053926867  1.0000
  H   H315      1.0  0.4841219738646814  0.7763723116930956  0.360077724346824  1.0000
  H   H316      1.0  0.5539972412641718  0.775015526462975  0.38031513352639373  1.0000
  H   H317      1.0  0.5322093125845877  0.8021345436560254  0.3199774056811179  1.0000
  H   H318      1.0  0.5013239461439462  0.7324290828140466  0.24770046149852937  1.0000
  H   H319      1.0  0.5038839775669741  0.6623923509712374  0.2616985935287948  1.0000
  H   H320      1.0  0.45412883192533415  0.7046047498065531  0.2914672665910679  1.0000
  O   O41       1.0  0.2168375817873418  0.6642293576789737  0.902832344039957  1.0000
  C   C121      1.0  0.19832277385964564  0.623223656397442  0.8705841632234605  1.0000
  C   C122      1.0  0.23856476253927378  0.6114514787693618  0.8245331015753647  1.0000
  C   C123      1.0  0.19228621764004789  0.5727162874479691  0.9044924907696066  1.0000
  H   H321      1.0  0.24564977459743642  0.6497006842838036  0.9232857467789641  1.0000
  H   H322      1.0  0.1589993931085297  0.6315034961908528  0.8554965459105306  1.0000
  H   H323      1.0  0.23018777091340611  0.574793822199034  0.8036653828442205  1.0000
  H   H324      1.0  0.23669823516499727  0.6442354722285442  0.7978207405799896  1.0000
  H   H325      1.0  0.2778779713187367  0.6110618105834487  0.8416079655616783  1.0000
  H   H326      1.0  0.15399848531576424  0.5733754166581085  0.923654103606708  1.0000
  H   H327      1.0  0.19718205813480652  0.5381800014904402  0.8789674114349728  1.0000
  H   H328      1.0  0.22257964984489043  0.5704682260455508  0.9348833396233052  1.0000
  O   O42       1.0  0.9742721992112567  0.01640407172119302  0.6782122834426485  1.0000
  C   C124      1.0  0.9598146644076132  0.06579720499524443  0.702539235970468  1.0000
  C   C125      1.0  0.9821440555440188  0.06477096073155669  0.760538500218067  1.0000
  C   C126      1.0  0.9806504544720479  0.11251043845871335  0.6701415734538995  1.0000
  H   H329      1.0  0.01272943510491964  0.017823674105003035  0.667827151686182  1.0000
  H   H330      1.0  0.9163005406815824  0.06471957879531588  0.7046636018714565  1.0000
  H   H331      1.0  0.02568707447683649  0.05550804890470583  0.7614957582193094  1.0000
  H   H332      1.0  0.9756107828865972  0.10342312574988695  0.7806290826211328  1.0000
  H   H333      1.0  0.9619075565217127  0.030364714735613092  0.7762152461444057  1.0000
  H   H334      1.0  0.9707481223756769  0.10745279275839267  0.625615056236621  1.0000
  H   H335      1.0  0.9618329295904429  0.14907155951102646  0.6806441067496625  1.0000
  H   H336      1.0  0.023511061027963853  0.11275551689073694  0.6811871998552116  1.0000
  O   O43       1.0  0.4292763436987479  0.047935999328818354  0.6948581937700099  1.0000
  C   C127      1.0  0.4577739123599089  0.09672839779445745  0.6988445179683352  1.0000
  C   C128      1.0  0.42701083860950234  0.1398359694998347  0.667462055758271  1.0000
  C   C129      1.0  0.46122912579830955  0.11208319139433295  0.7568387769474186  1.0000
  H   H337      1.0  0.42704572518791245  0.03794535812055912  0.6577415889085024  1.0000
  H   H338      1.0  0.49829146715534184  0.09276466450260781  0.6833225627939611  1.0000
  H   H339      1.0  0.41510567503680273  0.12624862734785217  0.6270270533002132  1.0000
  H   H340      1.0  0.3889670085507131  0.15238810856187224  0.6893401965696923  1.0000
  H   H341      1.0  0.4530804898067245  0.17484009617188956  0.6652836156209847  1.0000
  H   H342      1.0  0.4847431448647549  0.07904506644040335  0.7722106444454561  1.0000
  H   H343      1.0  0.4813610792029627  0.1508575540711873  0.7588466522616182  1.0000
  H   H344      1.0  0.42124916618597846  0.10579130922283668  0.7748717331463938  1.0000
  O   O44       1.0  0.8574126539923875  0.21252525786596738  0.45089829571805146  1.0000
  C   C130      1.0  0.8407764512139253  0.2410526696652897  0.4031596331164474  1.0000
  C   C131      1.0  0.863349821356914  0.3000480221097273  0.40142485945552797  1.0000
  C   C132      1.0  0.8595342138733636  0.2094924373198754  0.3537474382307522  1.0000
  H   H345      1.0  0.8315774631234042  0.2251765583431659  0.4776646550038804  1.0000
  H   H346      1.0  0.7969434185619094  0.24890348025152625  0.4010108464515231  1.0000
  H   H347      1.0  0.905022842866334  0.29562614650693964  0.39197726681912914  1.0000
  H   H348      1.0  0.8394143573295344  0.32514596809993584  0.37525885286315713  1.0000
  H   H349      1.0  0.8649273779750775  0.317248022580399  0.44169403674737123  1.0000
  H   H350      1.0  0.903767532019833  0.21746311351031103  0.34748317132011397  1.0000
  H   H351      1.0  0.8541029782392509  0.16728295862214945  0.36112898620540124  1.0000
  H   H352      1.0  0.8400638545389969  0.22206812516031868  0.31728579112466565  1.0000
  O   O45       1.0  0.9202245240776391  0.6212964375578688  0.9549379733990091  1.0000
  C   C133      1.0  0.8670380167641366  0.6260489773899778  0.9399165649573121  1.0000
  C   C134      1.0  0.8558005901274127  0.6746804708667627  0.9054314708726025  1.0000
  C   C135      1.0  0.8473404393926608  0.5799219237735281  0.907090859336677  1.0000
  H   H353      1.0  0.9306446943042039  0.5851062610587126  0.9568005384678551  1.0000
  H   H354      1.0  0.841190388272086  0.6258796634863978  0.9748793778853796  1.0000
  H   H355      1.0  0.8789632403778764  0.6755888877377554  0.8688047194893878  1.0000
  H   H356      1.0  0.8128119647236599  0.6817382565385992  0.9043543854388942  1.0000
  H   H357      1.0  0.8707317486631616  0.7123217398391288  0.9263675981211051  1.0000
  H   H358      1.0  0.8677396164013038  0.5823897712561259  0.8673770994511172  1.0000
  H   H359      1.0  0.8538420871667498  0.5407197832066285  0.9256281539938271  1.0000
  H   H360      1.0  0.8052066874492676  0.579752458375882  0.8986439048881897  1.0000
  O   O46       1.0  0.608915944056114  0.2537116490228167  0.16816555152038884  1.0000
  C   C136      1.0  0.5570828087835886  0.22798633230686763  0.16964741637489014  1.0000
  C   C137      1.0  0.5509344638599634  0.19679057003198874  0.11577347272772584  1.0000
  C   C138      1.0  0.5529467376711698  0.19416742045525032  0.21720755057556887  1.0000
  H   H361      1.0  0.6112394669988437  0.27769654226371066  0.1365519845160073  1.0000
  H   H362      1.0  0.5240910887285619  0.2559681479687607  0.17176017886423056  1.0000
  H   H363      1.0  0.5726219420331468  0.1609733770927379  0.11946135520626054  1.0000
  H   H364      1.0  0.5088592987674522  0.1929732563514888  0.11078388404672043  1.0000
  H   H365      1.0  0.571748829243896  0.2207689215921058  0.08562834645404856  1.0000
  H   H366      1.0  0.5159745328977525  0.16765905119019936  0.21540273814618563  1.0000
  H   H367      1.0  0.5898688118254751  0.17027742254071018  0.21884130473268945  1.0000
  H   H368      1.0  0.5498125186873024  0.22046070631812736  0.2519035756936005  1.0000
  O   O47       1.0  0.6809878153735599  0.39702884520198234  0.7941245819925509  1.0000
  C   C139      1.0  0.655859912525235  0.3503729186434667  0.7791588402641462  1.0000
  C   C140      1.0  0.6590056971466393  0.34392849268317566  0.7204399259210436  1.0000
  C   C141      1.0  0.6859729578428923  0.305443044300079  0.8059268679728137  1.0000
  H   H369      1.0  0.6813764974563654  0.42085005566518763  0.7639711895505249  1.0000
  H   H370      1.0  0.6165885296271799  0.3490911396762145  0.7979379898299755  1.0000
  H   H371      1.0  0.6402336006037626  0.378240064033098  0.6982666142302202  1.0000
  H   H372      1.0  0.6982322584774747  0.3400441359200236  0.7044182582254115  1.0000
  H   H373      1.0  0.6372863662525906  0.3096659525269247  0.7104464337614611  1.0000
  H   H374      1.0  0.6670920301100665  0.266383673172542  0.7941687967882615  1.0000
  H   H375      1.0  0.7287653081707601  0.30614576244855346  0.7968255625404144  1.0000
  H   H376      1.0  0.6803485565386614  0.2996201682738379  0.8488884940325284  1.0000
  O   O48       1.0  0.30734053372144615  0.20199144044911482  0.30537260751177214  1.0000
  C   C142      1.0  0.3039910794437166  0.25816403179287434  0.31075839572128977  1.0000
  C   C143      1.0  0.2846971438958602  0.27348973097723034  0.3671155636975754  1.0000
  C   C144      1.0  0.3591828071478504  0.2832288164874889  0.2986505485953725  1.0000
  H   H377      1.0  0.2968914301163612  0.20051160426318418  0.26591016355801383  1.0000
  H   H378      1.0  0.2753559931374856  0.2735739895115551  0.2792718423757709  1.0000
  H   H379      1.0  0.3127453958688965  0.2527764988170518  0.39710934978492035  1.0000
  H   H380      1.0  0.2884231269332159  0.31681933453309036  0.3737681715311536  1.0000
  H   H381      1.0  0.24472774473209183  0.2616470219267547  0.36977646273271386  1.0000
  H   H382      1.0  0.3872896459717687  0.2708422934423777  0.3320008046069111  1.0000
  H   H383      1.0  0.36953756533811294  0.26503071783965226  0.2610067769887485  1.0000
  H   H384      1.0  0.3588292013092544  0.3269257152197632  0.29757774793871583  1.0000
  O   O49       1.0  0.23880961313376484  0.4301069101151265  0.2875185021853432  1.0000
  C   C145      1.0  0.18771531561463087  0.40593922238450014  0.3017074296596684  1.0000
  C   C146      1.0  0.18009287935092128  0.413861626442084  0.360829985428768  1.0000
  C   C147      1.0  0.1388704071585105  0.4309983004050015  0.26865291352493  1.0000
  H   H385      1.0  0.24791023624643313  0.46069266861000363  0.31406463999466083  1.0000
  H   H386      1.0  0.19040839023987793  0.36199766232591196  0.29416509956143155  1.0000
  H   H387      1.0  0.1848895584305189  0.45498294672249634  0.37581817611251567  1.0000
  H   H388      1.0  0.14405948449818937  0.3963036971840316  0.3775013022255508  1.0000
  H   H389      1.0  0.2131748878812515  0.388881195313505  0.3757278880348344  1.0000
  H   H390      1.0  0.10043184678531496  0.413042398223332  0.2746506200654427  1.0000
  H   H391      1.0  0.13495078448534956  0.4737702495319638  0.27713788264583866  1.0000
  H   H392      1.0  0.15140315020861653  0.43020777772723706  0.22725870034290335  1.0000
  O   O50       1.0  0.7904099180669552  0.4203938378457984  0.007547259294127473  1.0000
  C   C148      1.0  0.8029808471646596  0.42682411958845046  0.9538946369465373  1.0000
  C   C149      1.0  0.8190964053952936  0.3730597081392106  0.9267554459924913  1.0000
  C   C150      1.0  0.7541217940932781  0.4480839713656547  0.9218600226034424  1.0000
  H   H393      1.0  0.760920281169608  0.3977726122780453  0.011949644250894842  1.0000
  H   H394      1.0  0.8350864478099705  0.454174981153149  0.9488890932762992  1.0000
  H   H395      1.0  0.7894053358642353  0.34280328621305955  0.9358850398601685  1.0000
  H   H396      1.0  0.8224248139264975  0.3772288455155127  0.8835994411172629  1.0000
  H   H397      1.0  0.8574086344293574  0.3592762046312984  0.9409508765782381  1.0000
  H   H398      1.0  0.7197606233475309  0.4224871852373407  0.9280615697778354  1.0000
  H   H399      1.0  0.7441926904904017  0.48935045039735453  0.9348572504365307  1.0000
  H   H400      1.0  0.7611732846101147  0.4537148570930625  0.8782388124537676  1.0000
  O   O51       1.0  0.659480230638386  0.5107706667948148  0.7361631618374405  1.0000
  C   C151      1.0  0.6849232506871983  0.5587912658178232  0.717774362777255  1.0000
  C   C152      1.0  0.6946513013855848  0.5999335940706504  0.7651759904463157  1.0000
  C   C153      1.0  0.7385003359462552  0.5423892203794676  0.691822832815549  1.0000
  H   H401      1.0  0.6375808544146397  0.5191009405930918  0.7663287648602455  1.0000
  H   H402      1.0  0.6606041857913731  0.5754623174005848  0.6840598832209578  1.0000
  H   H403      1.0  0.729808037851723  0.6231204372475175  0.7588512026503133  1.0000
  H   H404      1.0  0.6607100590696217  0.6208195907000412  0.7735970072020946  1.0000
  H   H405      1.0  0.7032613883026073  0.5765684121586573  0.8016621338645601  1.0000
  H   H406      1.0  0.73130277691849  0.5175336982953365  0.6552625173458553  1.0000
  H   H407      1.0  0.7623959840725532  0.5778656244347883  0.6743384306657036  1.0000
  H   H408      1.0  0.763256924452758  0.5193027899348903  0.718697947345483  1.0000
  O   O52       1.0  0.7071063458727651  0.5270220933335468  0.4884678193273819  1.0000
  C   C154      1.0  0.7548086049671865  0.4929902595541478  0.4909406720784954  1.0000
  C   C155      1.0  0.8065816742341684  0.5317752021630537  0.4875160600438312  1.0000
  C   C156      1.0  0.756790618534522  0.46067010633232774  0.5413156992313467  1.0000
  H   H409      1.0  0.7027236038513281  0.5239841534013617  0.44994854601720474  1.0000
  H   H410      1.0  0.7510081655784937  0.4735993053772784  0.4514504140527687  1.0000
  H   H411      1.0  0.8435562301477774  0.5092746386368079  0.48416558188888303  1.0000
  H   H412      1.0  0.8057835299336753  0.5616568961606166  0.45500896036104893  1.0000
  H   H413      1.0  0.8102232277596444  0.55095998404934  0.5261871280225392  1.0000
  H   H414      1.0  0.7541343836080336  0.4857226239838078  0.5762512476013549  1.0000
  H   H415      1.0  0.7235266310376343  0.43243828251811733  0.5460014997641803  1.0000
  H   H416      1.0  0.7911853108215952  0.43594533317020157  0.5453504856259455  1.0000
  O   O53       1.0  0.23804686715148007  0.3802540440412539  0.910325377332879  1.0000
  C   C157      1.0  0.188867957222739  0.401520835519078  0.8915950688972992  1.0000
  C   C158      1.0  0.17734057372679446  0.38431605721980094  0.8323709059387584  1.0000
  C   C159      1.0  0.1444686815018557  0.3746968373137414  0.9236365843716587  1.0000
  H   H417      1.0  0.2330206761521817  0.3482468461479066  0.9285940451772221  1.0000
  H   H418      1.0  0.18673416807273946  0.44712462783586404  0.8944772323720344  1.0000
  H   H419      1.0  0.13793345532646306  0.38848128875302806  0.8222694927464903  1.0000
  H   H420      1.0  0.20166873940000973  0.4050272416255423  0.8054628766390075  1.0000
  H   H421      1.0  0.19032208355349375  0.34306804535452473  0.8234374352552778  1.0000
  H   H422      1.0  0.14412846121770137  0.33224508660162644  0.92458284533514  1.0000
  H   H423      1.0  0.1453403533081781  0.3930042216337255  0.9639795166092416  1.0000
  H   H424      1.0  0.10639718886516414  0.3874822808162219  0.9047848556289966  1.0000
  O   O54       1.0  0.8527277636168176  0.9676346267934951  0.9494891425840029  1.0000
  C   C160      1.0  0.8482182922364058  0.019546446334431526  0.9741483518181383  1.0000
  C   C161      1.0  0.8123722422621013  0.018715803972208733  0.02226212088468471  1.0000
  C   C162      1.0  0.9011017414361339  0.0436925193211342  0.9871678007690371  1.0000
  H   H425      1.0  0.8821111486995621  0.948975892743396  0.9705661811832303  1.0000
  H   H426      1.0  0.8270026174808013  0.04634304717588705  0.94622436434393  1.0000
  H   H427      1.0  0.7726103231684004  0.0019643615264644007  0.012467254941178618  1.0000
  H   H428      1.0  0.8320023212734821  0.9993606652192573  0.05631810981637586  1.0000
  H   H429      1.0  0.8044793779569244  0.06035740855471746  0.03380624626423678  1.0000
  H   H430      1.0  0.9229847360220046  0.048869007146057505  0.9505781352127358  1.0000
  H   H431      1.0  0.8970997183172862  0.08202814484429317  0.00584524851133672  1.0000
  H   H432      1.0  0.9262756034488523  0.022308080175858766  0.01611760585829014  1.0000
  O   O55       1.0  0.8499830990989081  0.9894336284566846  0.3202295371360943  1.0000
  C   C163      1.0  0.8912583373505104  0.0021016326457575134  0.2841268617804737  1.0000
  C   C164      1.0  0.8731594760636789  0.04199739098136366  0.24396770973810863  1.0000
  C   C165      1.0  0.9475690149391157  0.014883113445185314  0.30870878955739306  1.0000
  H   H433      1.0  0.8661515939686663  0.9604708354352106  0.34145988693500273  1.0000
  H   H434      1.0  0.8990228038738741  0.9657307479806616  0.2610609080850241  1.0000
  H   H435      1.0  0.8749086595538809  0.08470151967423202  0.2616528804925562  1.0000
  H   H436      1.0  0.8952040869845569  0.042424182768301226  0.20365894398509404  1.0000
  H   H437      1.0  0.8339361004820766  0.030780119019768643  0.22970804248734433  1.0000
  H   H438      1.0  0.9766563185875723  0.023855888687571672  0.2794115405810999  1.0000
  H   H439      1.0  0.9475769025711102  0.044755138065582394  0.3406604153715365  1.0000
  H   H440      1.0  0.9635996319180717  0.980990788205316  0.3293299701853411  1.0000
  O   O56       1.0  0.3915161948276682  0.35893469525590416  0.9049044560191744  1.0000
  C   C166      1.0  0.39237929668226523  0.3367960045318474  0.8544550293749635  1.0000
  C   C167      1.0  0.3670507198634266  0.2802705469268226  0.852207574346432  1.0000
  C   C168      1.0  0.36375886673109364  0.37462505457421713  0.8184136140844154  1.0000
  H   H441      1.0  0.3530176638782622  0.36142116139899183  0.9136663753788384  1.0000
  H   H442      1.0  0.4331246381145829  0.3315280532579581  0.8437345311087923  1.0000
  H   H443      1.0  0.3655676605517739  0.2659145624526428  0.813259650763057  1.0000
  H   H444      1.0  0.3908253643907295  0.2477091451702098  0.8733577988940009  1.0000
  H   H445      1.0  0.32513235470796165  0.27855515058959024  0.866847581565809  1.0000
  H   H446      1.0  0.3807486375740409  0.4142971782441684  0.8223529930152399  1.0000
  H   H447      1.0  0.37069303205209997  0.3603233713786234  0.7767920882311914  1.0000
  H   H448      1.0  0.3196566004947617  0.3747663452565405  0.8292543195122732  1.0000
  O   O57       1.0  0.22407907170855193  0.1514719849769957  0.3736057591564604  1.0000
  C   C169      1.0  0.23961316151786108  0.13578747507917321  0.42425676953082614  1.0000
  C   C170      1.0  0.19552560849656608  0.15066975431293927  0.464157324383282  1.0000
  C   C171      1.0  0.25166892530194007  0.07404741954747084  0.4233718636641283  1.0000
  H   H449      1.0  0.2555822532177232  0.1645610838218263  0.3587263237168176  1.0000
  H   H450      1.0  0.27694198690155253  0.15938662466547363  0.43473848451997377  1.0000
  H   H451      1.0  0.17396601636539794  0.18861552238200804  0.45881353263510494  1.0000
  H   H452      1.0  0.16868069735052554  0.11752710203197872  0.4571720427376784  1.0000
  H   H453      1.0  0.21005138123763525  0.14609432058707159  0.5045847429927222  1.0000
  H   H454      1.0  0.21357240552742576  0.0515018972743393  0.4247909515247846  1.0000
  H   H455      1.0  0.2766921684150346  0.06526898574410941  0.3903934913894322  1.0000
  H   H456      1.0  0.27219162723208024  0.06421322558534812  0.4603711055556945  1.0000
  O   O58       1.0  0.6770158250586729  0.9550549952090849  0.6883752032257661  1.0000
  C   C172      1.0  0.6381040015967261  0.9647754620588536  0.7267563712052308  1.0000
  C   C173      1.0  0.6168556017371036  0.021407854593456177  0.7233559902687035  1.0000
  C   C174      1.0  0.5956489518130449  0.9216243105604524  0.7242351322036883  1.0000
  H   H457      1.0  0.6744874570883331  0.9182885456205411  0.6771443747321746  1.0000
  H   H458      1.0  0.6577600942466593  0.9632267247016328  0.7652678332268802  1.0000
  H   H459      1.0  0.5995488937767641  0.024387472888780515  0.6849001194121246  1.0000
  H   H460      1.0  0.5886137288165064  0.035026063760818626  0.7545565112863211  1.0000
  H   H461      1.0  0.6529602298154508  0.04643109770655096  0.72734701634979  1.0000
  H   H462      1.0  0.5703301203172162  0.91797479385476  0.7577691115504671  1.0000
  H   H463      1.0  0.5668170405193976  0.9299623582707687  0.6910933996229244  1.0000
  H   H464      1.0  0.615570334032486  0.8826053247290172  0.7168105070305025  1.0000
  O   O59       1.0  0.7331289384801535  0.046243298075083684  0.6447903206374297  1.0000
  C   C175      1.0  0.7707296324906183  0.024495431822358076  0.6073083164622568  1.0000
  C   C176      1.0  0.7489021531239739  0.029730120009364775  0.5500637022109045  1.0000
  C   C177      1.0  0.8255671102081584  0.05202392117365173  0.6176709241127805  1.0000
  H   H465      1.0  0.7055064921909471  0.01986473298164108  0.6528450283199019  1.0000
  H   H466      1.0  0.7743012613652079  0.9820134017805056  0.6147071562320446  1.0000
  H   H467      1.0  0.7107121030601898  0.006882574235477375  0.5428107416838681  1.0000
  H   H468      1.0  0.7409585514281759  0.06993152696751398  0.5373833737210973  1.0000
  H   H469      1.0  0.7803116906239203  0.014468901630069999  0.5228849983439092  1.0000
  H   H470      1.0  0.8592913728615766  0.03648478792409375  0.5932952064005553  1.0000
  H   H471      1.0  0.8289338181092938  0.09330561561725342  0.6106584912314506  1.0000
  H   H472      1.0  0.837210131391228  0.0468084655758438  0.6567436048489149  1.0000
  O   O60       1.0  0.9344160110461996  0.5863158779548417  0.7019039207527555  1.0000
  C   C178      1.0  0.8978201262807427  0.5547663770355451  0.7289091774331856  1.0000
  C   C179      1.0  0.9247630421589037  0.5171974598001013  0.7681744930137733  1.0000
  C   C180      1.0  0.8599765153126465  0.5914005607733114  0.7583181204794176  1.0000
  H   H473      1.0  0.9584399806108446  0.6048229879163429  0.7274167895066103  1.0000
  H   H474      1.0  0.8738396887944552  0.5287489415883608  0.7000900453200932  1.0000
  H   H475      1.0  0.9519061767301357  0.5375223510373399  0.7948887498718972  1.0000
  H   H476      1.0  0.8957659888140174  0.4976617639776541  0.7927416320274336  1.0000
  H   H477      1.0  0.9455367192586023  0.4899002935377243  0.7412512956191647  1.0000
  H   H478      1.0  0.8325701385287216  0.5688210477646333  0.7820371356699171  1.0000
  H   H479      1.0  0.8812816061604021  0.6192861733293664  0.7831237775560804  1.0000
  H   H480      1.0  0.8382228282682302  0.6160110807688853  0.7296166924961319  1.0000
  O   O61       1.0  0.29871709862647083  0.279610659451108  0.7120525062548128  1.0000
  C   C181      1.0  0.2620295607462485  0.2643974316881327  0.7491557633359895  1.0000
  C   C182      1.0  0.20689871377558866  0.2783691138882693  0.7258615299521015  1.0000
  C   C183      1.0  0.27048732256669766  0.202095872744435  0.755812352958487  1.0000
  H   H481      1.0  0.28397948469481626  0.2742696359488323  0.6760889791929897  1.0000
  H   H482      1.0  0.2710689806538218  0.28426665461989126  0.7863702782955291  1.0000
  H   H483      1.0  0.19402872743889557  0.24255992190334577  0.7055103602599112  1.0000
  H   H484      1.0  0.17744640923093188  0.2906535553806298  0.7568619841683367  1.0000
  H   H485      1.0  0.21084463398956785  0.31076012140172815  0.6938777289454716  1.0000
  H   H486      1.0  0.31227765018608133  0.19224410745875212  0.7630529136365671  1.0000
  H   H487      1.0  0.24706685287538865  0.19063187261622225  0.7886835628636948  1.0000
  H   H488      1.0  0.26242698375833423  0.18015478435923604  0.7187441343474088  1.0000
  O   O62       1.0  0.912231702317615  0.22437410978213246  0.03709477937780671  1.0000
  C   C184      1.0  0.9604471732076911  0.2509030699138885  0.026488849990230996  1.0000
  C   C185      1.0  0.9989897296846305  0.21169321229492732  0.9994761323264496  1.0000
  C   C186      1.0  0.9486115931260125  0.3041923029281395  0.995150479312989  1.0000
  H   H489      1.0  0.8931004252726066  0.20863963069981975  0.00474803119374717  1.0000
  H   H490      1.0  0.9798706632204012  0.2610010130570356  0.06510117008105748  1.0000
  H   H491      1.0  0.014976131867876052  0.17895866713512584  0.02759841400218011  1.0000
  H   H492      1.0  0.9865692683901058  0.19890602482138633  0.9592154868145985  1.0000
  H   H493      1.0  0.036305112256280525  0.23156146860706706  0.9921854978892353  1.0000
  H   H494      1.0  0.9778902425276823  0.33497841331953143  0.003166826789329951  1.0000
  H   H495      1.0  0.950420387344315  0.29897404608178585  0.9542312545025297  1.0000
  H   H496      1.0  0.9097279066052775  0.322523406606462  0.007765373897271573  1.0000
  O   O63       1.0  0.7022510421681745  0.5052491808571318  0.05156028968795535  1.0000
  C   C187      1.0  0.713833315423592  0.559675375644835  0.06401813104983695  1.0000
  C   C188      1.0  0.7512448637245912  0.5600680395165598  0.11008048318089282  1.0000
  C   C189      1.0  0.7354927326014075  0.5880774612939998  0.015074203129688407  1.0000
  H   H497      1.0  0.7368259312790116  0.489401073670398  0.04346999839531986  1.0000
  H   H498      1.0  0.6755092551403477  0.5777118201835536  0.08147110672983769  1.0000
  H   H499      1.0  0.7911701427267376  0.553205126109413  0.09676582517885864  1.0000
  H   H500      1.0  0.7492144639068268  0.59861950710509  0.12608568414749416  1.0000
  H   H501      1.0  0.7367725397600667  0.5335557834943003  0.14089407602732107  1.0000
  H   H502      1.0  0.7054019084015607  0.5793902444138275  0.9847924789111379  1.0000
  H   H503      1.0  0.7371213295983241  0.629574078102776  0.021941529348241843  1.0000
  H   H504      1.0  0.7728577905147266  0.5703601153470659  0.004341731265581699  1.0000
  O   O64       1.0  0.7876630539029201  0.25403895732059434  0.5294486453627792  1.0000
  C   C190      1.0  0.760969956511277  0.3029097466094456  0.5368191966972893  1.0000
  C   C191      1.0  0.74446601918597  0.3270870659431268  0.4827964727556503  1.0000
  C   C192      1.0  0.7142562013674544  0.30056276992002096  0.5767189932841701  1.0000
  H   H505      1.0  0.7739549741612084  0.2326419290581856  0.5600989443060507  1.0000
  H   H506      1.0  0.79155685300095  0.32790974472751105  0.5543607065433552  1.0000
  H   H507      1.0  0.7113011553301323  0.35380230890435843  0.48737533835890584  1.0000
  H   H508      1.0  0.7788662479648459  0.34585385343411107  0.46383545794321845  1.0000
  H   H509      1.0  0.7365569251346058  0.29278209273633676  0.45313498114873213  1.0000
  H   H510      1.0  0.7264333667703714  0.28325278197398207  0.6127276075248561  1.0000
  H   H511      1.0  0.7048280997746978  0.3392486457478544  0.5884637166883917  1.0000
  H   H512      1.0  0.6798701549779506  0.276521394840282  0.5610177132715622  1.0000
  O   O65       1.0  0.17407704680385036  0.034861020844293475  0.8808929236799744  1.0000
  C   C193      1.0  0.2015847460797063  0.010575047262551419  0.8373279874127231  1.0000
  C   C194      1.0  0.1605199271216278  0.9942680756829266  0.7955417362163473  1.0000
  C   C195      1.0  0.24188621268161337  0.04891251576470389  0.813608061667338  1.0000
  H   H513      1.0  0.1768259774105669  0.00831038513241396  0.9086869208953751  1.0000
  H   H514      1.0  0.22389627721881958  0.9739171525165133  0.8472163645596322  1.0000
  H   H515      1.0  0.18236412928601328  0.9705101161792536  0.7654013881688976  1.0000
  H   H516      1.0  0.13108354893740368  0.97134919568738  0.8174043296013122  1.0000
  H   H517      1.0  0.14040805244625928  0.027684706374164328  0.7770892309191867  1.0000
  H   H518      1.0  0.21845503065005326  0.08623232069069388  0.8080600316630598  1.0000
  H   H519      1.0  0.274256306856746  0.05892869346485074  0.8425211598636541  1.0000
  H   H520      1.0  0.25700877343293105  0.036733352310127254  0.7752178688563273  1.0000
  O   O66       1.0  0.046442350542180884  0.6079673697265521  0.26713254054883134  1.0000
  C   C196      1.0  0.030651545488933705  0.5937161587075579  0.31964063636021806  1.0000
  C   C197      1.0  0.9678347508524774  0.5926421445078833  0.3201053104113774  1.0000
  C   C198      1.0  0.06130529539545963  0.5406041646053701  0.33038206665295977  1.0000
  H   H521      1.0  0.07650534595803704  0.5848543952153796  0.26081465428171574  1.0000
  H   H522      1.0  0.04607509791134422  0.6201936796454733  0.3505125786770624  1.0000
  H   H523      1.0  0.9487186987623041  0.5716970302019456  0.28791448381687845  1.0000
  H   H524      1.0  0.9571066492541997  0.5700661957847925  0.3567342236666067  1.0000
  H   H525      1.0  0.9492322334272021  0.6317370085877171  0.3288757241745449  1.0000
  H   H526      1.0  0.038263752921012736  0.5242916863556092  0.366101008334313  1.0000
  H   H527      1.0  0.052203847614305354  0.5138131189439616  0.29791030842840827  1.0000
  H   H528      1.0  0.1031641496260013  0.5469478744476167  0.34072821671976383  1.0000
  O   O67       1.0  0.35646900964532086  0.9753021878833977  0.8629335331585617  1.0000
  C   C199      1.0  0.4018169925015879  0.0044319623565043376  0.8778774331007545  1.0000
  C   C200      1.0  0.3876955439038689  0.051629806649284626  0.9148736033606649  1.0000
  C   C201      1.0  0.43584727118048117  0.9621508524133202  0.9042331921740998  1.0000
  H   H529      1.0  0.35606386997879574  0.9783147968943834  0.8252871070259916  1.0000
  H   H530      1.0  0.42248669218578694  0.017009717037251626  0.8426205868904586  1.0000
  H   H531      1.0  0.3820506280763995  0.03391955189703655  0.955422821211164  1.0000
  H   H532      1.0  0.41900884012624395  0.0813546251615791  0.9174831964054068  1.0000
  H   H533      1.0  0.3538708307440499  0.07453133838733694  0.9045694688410681  1.0000
  H   H534      1.0  0.4138372060757702  0.9443674876585749  0.9389809216999934  1.0000
  H   H535      1.0  0.4438303098433843  0.9272617566568816  0.8772854225214892  1.0000
  H   H536      1.0  0.47373904095909614  0.9797460575617079  0.9178815100912672  1.0000
  O   O68       1.0  0.7925149448159895  0.36407644839410563  0.663916516070456  1.0000
  C   C202      1.0  0.8457381590224291  0.35872787841970105  0.673718966260202  1.0000
  C   C203      1.0  0.876594819922083  0.35072739686521515  0.6211103630824368  1.0000
  C   C204      1.0  0.8668512977430847  0.4090539507223474  0.7010568589785463  1.0000
  H   H537      1.0  0.7865282540014824  0.40016416400891247  0.6731065548776531  1.0000
  H   H538      1.0  0.8507005491506638  0.3231055195734067  0.6986812336081119  1.0000
  H   H539      1.0  0.8683467191295826  0.3827795300457371  0.5918302349237277  1.0000
  H   H540      1.0  0.9201724216499342  0.35173103113656046  0.6285413211847336  1.0000
  H   H541      1.0  0.8665051620331512  0.3120248360137517  0.605597129353854  1.0000
  H   H542      1.0  0.8850727169341723  0.4363550609995328  0.6718685358262908  1.0000
  H   H543      1.0  0.837430978725115  0.432748545546533  0.7238773171362628  1.0000
  H   H544      1.0  0.898539700430402  0.3967117188164132  0.7227731564126724  1.0000
  O   O69       1.0  0.5267732227784031  0.12283104925027423  0.39104378503620285  1.0000
  C   C205      1.0  0.49293626126369405  0.1270396808512814  0.3484758085536982  1.0000
  C   C206      1.0  0.45321025302324414  0.0815598305617022  0.3524551175031817  1.0000
  C   C207      1.0  0.4685478403167581  0.18239693033587523  0.346016645140403  1.0000
  H   H545      1.0  0.5029787842193256  0.12531529705899194  0.42393122468759775  1.0000
  H   H546      1.0  0.5165825080091836  0.12133672768683913  0.31219215902287206  1.0000
  H   H547      1.0  0.47164110540474785  0.043594789345968145  0.344818025282035  1.0000
  H   H548      1.0  0.43792291006879713  0.07732629945960516  0.3936350624085871  1.0000
  H   H549      1.0  0.42195948726893723  0.08662905144249312  0.32272381456771  1.0000
  H   H550      1.0  0.429560517540389  0.18206000952090926  0.3256034376340762  1.0000
  H   H551      1.0  0.45444049816256715  0.19485356769767218  0.383498800809642  1.0000
  H   H552      1.0  0.4976947924674263  0.21494500300040176  0.33187760175941283  1.0000
  O   O70       1.0  0.5485945215052473  0.7463553557613214  0.9119693702621856  1.0000
  C   C208      1.0  0.5374395712600545  0.7359528562638719  0.857780100662868  1.0000
  C   C209      1.0  0.5539897711355093  0.782106681386827  0.8211374984674426  1.0000
  C   C210      1.0  0.5677701648400324  0.6873922353693478  0.838022382135249  1.0000
  H   H553      1.0  0.5871692722605397  0.7537774786978716  0.9123039781086931  1.0000
  H   H554      1.0  0.49564816290347463  0.7270271972665413  0.8509450589829117  1.0000
  H   H555      1.0  0.5972089891961591  0.7868275199921368  0.8195833009618855  1.0000
  H   H556      1.0  0.5378395537663756  0.7752362219051736  0.78177480401211  1.0000
  H   H557      1.0  0.5362982487637064  0.8171858334076171  0.8364925290501617  1.0000
  H   H558      1.0  0.5635312920810209  0.6799419758892081  0.7962748096404034  1.0000
  H   H559      1.0  0.6111647259499965  0.6873966342639768  0.8453324885302392  1.0000
  H   H560      1.0  0.552906239052735  0.6522389872429527  0.8609503064458305  1.0000
  O   O71       1.0  0.0529888906602447  0.6874501017287658  0.45630018126555666  1.0000
  C   C211      1.0  0.01304656082202521  0.6817991563579398  0.4979618268032391  1.0000
  C   C212      1.0  0.016916501791561556  0.728914637979144  0.5380904339042232  1.0000
  C   C213      1.0  0.9563964987511737  0.6752827957664361  0.4725066721194917  1.0000
  H   H561      1.0  0.08049621577359087  0.664758268792773  0.471004235484152  1.0000
  H   H562      1.0  0.020355326832508937  0.6420109965833982  0.5176645231631857  1.0000
  H   H563      1.0  0.01021312475758482  0.764677794456208  0.5166501574657226  1.0000
  H   H564      1.0  0.9873080108409451  0.7255455029919728  0.5695732710724662  1.0000
  H   H565      1.0  0.05817070185146032  0.7320721779038846  0.552248626771368  1.0000
  H   H566      1.0  0.9508059219764013  0.7060482962052563  0.44053762210200975  1.0000
  H   H567      1.0  0.9503439589135435  0.637921757018525  0.4527445546972439  1.0000
  H   H568      1.0  0.9227080892957845  0.6818846284352824  0.5008861573192475  1.0000
  O   O72       1.0  0.4844040621777744  0.7878930779600414  0.11003221065041882  1.0000
  C   C214      1.0  0.5305388515345301  0.765501497515433  0.12899386086315956  1.0000
  C   C215      1.0  0.5668625825780813  0.7449883321566368  0.08569466904523661  1.0000
  C   C216      1.0  0.5606649034726525  0.8089428142270986  0.16099349359613352  1.0000
  H   H569      1.0  0.48616837598872287  0.7905778287617179  0.06917164863668579  1.0000
  H   H570      1.0  0.5256334172108275  0.7303328538542702  0.15749721214427792  1.0000
  H   H571      1.0  0.5435898120464286  0.7154797350413121  0.064555744523561  1.0000
  H   H572      1.0  0.5798473346163693  0.7792395345128834  0.06161317905250592  1.0000
  H   H573      1.0  0.5993959992851707  0.7238390937121755  0.10430824951356182  1.0000
  H   H574      1.0  0.5710301656491223  0.8422299329990601  0.1340310584431524  1.0000
  H   H575      1.0  0.5384508653258616  0.8233405868085751  0.19165086464822448  1.0000
  H   H576      1.0  0.599431644129156  0.7976948454324342  0.1788269321100132  1.0000
  O   O73       1.0  0.5127510878851558  0.43387409317651454  0.13785763393804187  1.0000
  C   C217      1.0  0.4838728380955166  0.405933951504341  0.17844120793890844  1.0000
  C   C218      1.0  0.45181152819176035  0.36502672892061716  0.15083160723316782  1.0000
  C   C219      1.0  0.5223498306444654  0.37828943598901255  0.21772127450864395  1.0000
  H   H577      1.0  0.5410348622353828  0.4064598291582176  0.13045708797130443  1.0000
  H   H578      1.0  0.4552640115559929  0.4312972634075237  0.20079964617378937  1.0000
  H   H579      1.0  0.42806502060566914  0.38079751647840165  0.11733626881380806  1.0000
  H   H580      1.0  0.4767117203490449  0.33519448242719074  0.12975773489968473  1.0000
  H   H581      1.0  0.42411107995387387  0.34802338245980663  0.17884585455387975  1.0000
  H   H582      1.0  0.5525980233811343  0.4076073704660993  0.23133025009279454  1.0000
  H   H583      1.0  0.5035056475786877  0.35537766587639635  0.2494362972084006  1.0000
  H   H584      1.0  0.5480795649432877  0.34760914201589144  0.1994654427048334  1.0000
  O   O74       1.0  0.17965272069778646  0.8372441078123748  0.990895547387723  1.0000
  C   C220      1.0  0.16011010426058586  0.8057240706996407  0.032267918385915646  1.0000
  C   C221      1.0  0.1849716368022069  0.7503417559054909  0.028959853798017698  1.0000
  C   C222      1.0  0.17373695932551778  0.8342834493374058  0.08035709610859318  1.0000
  H   H585      1.0  0.19381927516261285  0.8112489694288451  0.9647022571514262  1.0000
  H   H586      1.0  0.11752142358904322  0.8045735718776806  0.028725791489621882  1.0000
  H   H587      1.0  0.1770490243905794  0.7389907961960569  0.9880602532346447  1.0000
  H   H588      1.0  0.2276338636678232  0.7552021408244415  0.035039032336331634  1.0000
  H   H589      1.0  0.16747775454337283  0.7217101770248698  0.05634582977865897  1.0000
  H   H590      1.0  0.21901805099082097  0.8377685444833232  0.07915322445593258  1.0000
  H   H591      1.0  0.15643343671678933  0.8733377770246938  0.0768074799977703  1.0000
  H   H592      1.0  0.1628084115942589  0.8141882409974229  0.11814913587227138  1.0000
  O   O75       1.0  0.5130965031036251  0.3701792130873141  0.6857545375950411  1.0000
  C   C223      1.0  0.478411569259821  0.32500983457781646  0.6962003417309378  1.0000
  C   C224      1.0  0.4559434656235717  0.3029165344183772  0.6441247451758463  1.0000
  C   C225      1.0  0.5050727002106438  0.28467981432661027  0.7324586607381867  1.0000
  H   H593      1.0  0.49184108759753853  0.40415355983889373  0.6798546079491165  1.0000
  H   H594      1.0  0.4454536741318748  0.3421319849914964  0.7192175302419818  1.0000
  H   H595      1.0  0.4921408470373691  0.29057595184941487  0.6233161437236266  1.0000
  H   H596      1.0  0.4304609708335431  0.2686608767051463  0.6513355764357203  1.0000
  H   H597      1.0  0.4313723833903474  0.3318653915762559  0.6246162001915031  1.0000
  H   H598      1.0  0.5395222249995901  0.2743378353169026  0.7129020706632798  1.0000
  H   H599      1.0  0.514577780272484  0.3009331745022021  0.7718282571200283  1.0000
  H   H600      1.0  0.47706388520471266  0.2518528383029796  0.7358720864669126  1.0000
  O   O76       1.0  0.9360747927387651  0.9155579871485375  0.6918930612498122  1.0000
  C   C226      1.0  0.9276659102202991  0.8933379576301235  0.6409392198039602  1.0000
  C   C227      1.0  0.866851525182995  0.892366517637131  0.6319961934632687  1.0000
  C   C228      1.0  0.9569006478143907  0.9263117795161245  0.5962262869513842  1.0000
  H   H601      1.0  0.9498485505260451  0.9517233257780481  0.6852599822339873  1.0000
  H   H602      1.0  0.9469214895382464  0.8541675942358672  0.6346810202107894  1.0000
  H   H603      1.0  0.8553380393789125  0.8748972076362991  0.593775579372237  1.0000
  H   H604      1.0  0.8462836792140142  0.8682612470522398  0.6634134667035211  1.0000
  H   H605      1.0  0.8515279683871647  0.9306887576058483  0.636551851447984  1.0000
  H   H606      1.0  0.9520353331751463  0.9680214319726375  0.5951273593338421  1.0000
  H   H607      1.0  0.9986253164740727  0.916602916475626  0.5985766573464636  1.0000
  H   H608      1.0  0.9481736905813586  0.9136794197734146  0.5539687253889836  1.0000
  O   O77       1.0  0.9430489258525415  0.30671316259808346  0.7670220219855979  1.0000
  C   C229      1.0  0.998397567611299  0.3028796191713964  0.7664989507493556  1.0000
  C   C230      1.0  0.012258769682136794  0.24930357647780252  0.7410761044615387  1.0000
  C   C231      1.0  0.02290539928261337  0.35165795890817403  0.7341479301145335  1.0000
  H   H609      1.0  0.9279245260984526  0.27092476983390873  0.7590213885394235  1.0000
  H   H610      1.0  0.01411625313900089  0.3079835655935981  0.8062450945790679  1.0000
  H   H611      1.0  0.05518937683478331  0.2446831124330494  0.7311642163103348  1.0000
  H   H612      1.0  0.0031268246742679473  0.21549753844082867  0.7704651771325299  1.0000
  H   H613      1.0  0.9852359178208135  0.24038857296074553  0.7072529456069808  1.0000
  H   H614      1.0  0.06321609946773221  0.3604359942940702  0.7470052323023825  1.0000
  H   H615      1.0  0.018981567778245  0.3489950121185984  0.6906332759604602  1.0000
  H   H616      1.0  0.9986030194104182  0.38854973464687526  0.7400114566508976  1.0000
  O   O78       1.0  0.7796016725290937  0.6759432140678154  0.6259907698706944  1.0000
  C   C232      1.0  0.8343997888277506  0.6936516489031588  0.6353155767653045  1.0000
  C   C233      1.0  0.8629518866050302  0.6910458475839145  0.5797860558630523  1.0000
  C   C234      1.0  0.8321306435070733  0.7482609224804824  0.6602695779448656  1.0000
  H   H617      1.0  0.7819072213569536  0.6498243801828558  0.597462789073974  1.0000
  H   H618      1.0  0.8571932476414289  0.6657869683736742  0.6628472419252759  1.0000
  H   H619      1.0  0.8531532285384041  0.6521125612697325  0.5638391665927561  1.0000
  H   H620      1.0  0.8521209646719154  0.7208456723590778  0.5513823773392709  1.0000
  H   H621      1.0  0.903346921270318  0.6940944052222621  0.5897877764168723  1.0000
  H   H622      1.0  0.8163947421300768  0.7776782076409071  0.6313775632691863  1.0000
  H   H623      1.0  0.8007376391390687  0.7518668307643509  0.690439276078923  1.0000
  H   H624      1.0  0.8693192207739044  0.7607854367387284  0.6806875632797978  1.0000
  O   O79       1.0  0.8312536248747476  0.26837761262314647  0.17077262284500624  1.0000
  C   C235      1.0  0.8409745462067149  0.308306550942591  0.13245435472465264  1.0000
  C   C236      1.0  0.8029457327487171  0.2986123820312628  0.08581567224660938  1.0000
  C   C237      1.0  0.8253431530708826  0.3620585243711415  0.15886420751778477  1.0000
  H   H625      1.0  0.8611869282484618  0.2415631323009096  0.16575029951704973  1.0000
  H   H626      1.0  0.8842542469809953  0.3058266829426356  0.11643124604609233  1.0000
  H   H627      1.0  0.8100515253393841  0.3292330084163057  0.05524393947794944  1.0000
  H   H628      1.0  0.8115474775515468  0.2579595847851073  0.06924920007938976  1.0000
  H   H629      1.0  0.7628143196277206  0.3012660192917824  0.09743375178063371  1.0000
  H   H630      1.0  0.8545011404310452  0.3708947676739432  0.19014797313306406  1.0000
  H   H631      1.0  0.832401014290941  0.3950963177081389  0.13241956317795325  1.0000
  H   H632      1.0  0.7831537344141969  0.3614844123585241  0.17453163437213423  1.0000
  O   O80       1.0  0.9704394518242557  0.5130736748166834  0.9607242940263794  1.0000
  C   C238      1.0  0.987724848824048  0.4908938787026829  0.912024354655747  1.0000
  C   C239      1.0  0.047515615892432805  0.48720761732994244  0.9182491086534359  1.0000
  C   C240      1.0  0.9649924413237764  0.4355945329539957  0.90101945431278  1.0000
  H   H633      1.0  0.994350192099567  0.4979735439348421  0.9878803214981213  1.0000
  H   H634      1.0  0.9790820745771188  0.5187509749859275  0.8802242388126242  1.0000
  H   H635      1.0  0.06462673109661843  0.5251521340818823  0.9130538880504454  1.0000
  H   H636      1.0  0.05929059914290313  0.4782766115066086  0.9561295784061574  1.0000
  H   H637      1.0  0.06611426524874409  0.46331234853524317  0.8879524533228714  1.0000
  H   H638      1.0  0.974924199452599  0.40715232801799484  0.9319000806989272  1.0000
  H   H639      1.0  0.9225524459149976  0.43382430411489037  0.9022255446974328  1.0000
  H   H640      1.0  0.9775830129591893  0.41899704665117454  0.8622242737269326  1.0000
  O   O81       1.0  0.32109741681929677  0.8086599294766974  0.5625330805815232  1.0000
  C   C241      1.0  0.2872109123711181  0.7677743590133859  0.5820780668471598  1.0000
  C   C242      1.0  0.27644212248860633  0.7863179484279138  0.6367425904296883  1.0000
  C   C243      1.0  0.23629918150418402  0.7637874280435516  0.545653619685564  1.0000
  H   H641      1.0  0.30329202021491813  0.828119291773303  0.5331392300819267  1.0000
  H   H642      1.0  0.3078338755394821  0.729096275785836  0.583748224511463  1.0000
  H   H643      1.0  0.25187680378947275  0.7563478622154185  0.6588634963070524  1.0000
  H   H644      1.0  0.3108209830493355  0.7916769842167927  0.6591394039803449  1.0000
  H   H645      1.0  0.24945193926894538  0.8237375358549737  0.6363995641255217  1.0000
  H   H646      1.0  0.2493244516443955  0.7414560647009305  0.5103586637711361  1.0000
  H   H647      1.0  0.2048641051266167  0.7409137298609565  0.5660555267683752  1.0000
  H   H648      1.0  0.22091085721767134  0.8057583509041643  0.5333886310651127  1.0000
  O   O82       1.0  0.8400869858140707  0.7756755654327556  0.14150739716951116  1.0000
  C   C244      1.0  0.7987293848908925  0.7387062430228172  0.1309775523962668  1.0000
  C   C245      1.0  0.8178700657014235  0.6884819107154339  0.10361544726803014  1.0000
  C   C246      1.0  0.7725934866507043  0.7258976300735295  0.187298648482302  1.0000
  H   H649      1.0  0.862613031755582  0.761007345723945  0.16848614795507913  1.0000
  H   H650      1.0  0.7679620641375453  0.7597086542931525  0.10926662047638856  1.0000
  H   H651      1.0  0.8458685286128355  0.7019639104148326  0.07155996292743111  1.0000
  H   H652      1.0  0.8427762114562203  0.6639598211065254  0.13051335191317243  1.0000
  H   H653      1.0  0.7817328640131246  0.6688185376026373  0.08633506547730889  1.0000
  H   H654      1.0  0.7999397978267079  0.7026810574784562  0.21238172976340747  1.0000
  H   H655      1.0  0.7702154345918562  0.763264735741286  0.2124157252704208  1.0000
  H   H656      1.0  0.7351013200468118  0.704756809689105  0.18255179663606177  1.0000
  O   O83       1.0  0.3461858827005166  0.5755218903545745  0.32454534979483424  1.0000
  C   C247      1.0  0.38278313250305773  0.5492148960680124  0.28964254601233275  1.0000
  C   C248      1.0  0.3533521580048145  0.5281234098653916  0.23984853240098558  1.0000
  C   C249      1.0  0.43140745923693463  0.5841086563307237  0.26954610504346527  1.0000
  H   H657      1.0  0.34695566301750985  0.6120971838557042  0.3153113618035701  1.0000
  H   H658      1.0  0.39850507932821466  0.5146000391644054  0.3111594398789405  1.0000
  H   H659      1.0  0.3782361200182897  0.5045220988046989  0.21426541612700115  1.0000
  H   H660      1.0  0.3226836952808739  0.5021101836470369  0.25284189216510977  1.0000
  H   H661      1.0  0.33892636220208117  0.5588460987173185  0.21306880585133714  1.0000
  H   H662      1.0  0.41439243381625424  0.6177701233020525  0.2488592463699491  1.0000
  H   H663      1.0  0.45308814999880853  0.596089584431867  0.3055292937288634  1.0000
  H   H664      1.0  0.45827730288670937  0.5610990520659196  0.24381720455844  1.0000
  O   O84       1.0  0.7371341469506122  0.8286486577669229  0.8599587686376869  1.0000
  C   C250      1.0  0.7635150095052468  0.795944145411082  0.8220761755823061  1.0000
  C   C251      1.0  0.8254210412996075  0.7906360744527343  0.8301860950982501  1.0000
  C   C252      1.0  0.7374370535703205  0.7401151302830206  0.8251596953472858  1.0000
  H   H665      1.0  0.7581710658653812  0.8609074562895818  0.8558429090603743  1.0000
  H   H666      1.0  0.7553768771022468  0.8135567179028305  0.782033116504509  1.0000
  H   H667      1.0  0.841689494021835  0.773452379674094  0.7955853442405488  1.0000
  H   H668      1.0  0.8433363689169981  0.8294435415652052  0.8406771001329649  1.0000
  H   H669      1.0  0.8347285567967008  0.769238382558839  0.8649008339084824  1.0000
  H   H670      1.0  0.7509515127620937  0.7223311587567661  0.8629402831933822  1.0000
  H   H671      1.0  0.6958768064704135  0.7452659082527678  0.8301090410809444  1.0000
  H   H672      1.0  0.745556377249409  0.7159290895035479  0.7908111900621384  1.0000
  O   O85       1.0  0.3429887543146047  0.6852957030238167  0.31556106617251073  1.0000
  C   C253      1.0  0.3402454922102682  0.7061644078580687  0.36641161292021646  1.0000
  C   C254      1.0  0.38290057141884304  0.6825081883496587  0.40042471392154816  1.0000
  C   C255      1.0  0.344614545291509  0.7683308002968879  0.36860601758966866  1.0000
  H   H673      1.0  0.33478380666648516  0.7164893984583918  0.2937896706248682  1.0000
  H   H674      1.0  0.3031293048520926  0.6936741734067237  0.3831376484989171  1.0000
  H   H675      1.0  0.37590228315277424  0.6981875884043214  0.4404880223085627  1.0000
  H   H676      1.0  0.37770857433919675  0.6383724009696228  0.40673175504259085  1.0000
  H   H677      1.0  0.42372728981725116  0.690854047348503  0.38693437171033424  1.0000
  H   H678      1.0  0.3164711892404529  0.7850326807232961  0.3396549607856643  1.0000
  H   H679      1.0  0.3373956749055745  0.7863955332708843  0.40644473700920425  1.0000
  H   H680      1.0  0.38202142948385814  0.7816402629669849  0.35328928637688095  1.0000
  O   O86       1.0  0.02050694376390695  0.8780162966970421  0.4078935920621776  1.0000
  C   C256      1.0  0.06110215696242131  0.9043988276745151  0.44055525505701415  1.0000
  C   C257      1.0  0.09181690609384295  0.942126858213086  0.40123317294007144  1.0000
  C   C258      1.0  0.033355223505943346  0.9354782317708048  0.48571329536888513  1.0000
  H   H681      1.0  0.0361017250385129  0.8429806771522317  0.39920671673949293  1.0000
  H   H682      1.0  0.08732186323095811  0.8749991372973615  0.45714648437656863  1.0000
  H   H683      1.0  0.1203450097558295  0.918320626178939  0.37680910675152807  1.0000
  H   H684      1.0  0.06815090746453417  0.9623205834226098  0.37243027057316624  1.0000
  H   H685      1.0  0.11050044938478783  0.9720032813304899  0.4248298954403359  1.0000
  H   H686      1.0  0.01713578249389845  0.9039642619755384  0.5100453291110646  1.0000
  H   H687      1.0  0.05752249850470449  0.9603266630578721  0.5097811389669974  1.0000
  H   H688      1.0  0.0055787029800143054  0.9647241938425679  0.4665070124586304  1.0000
  O   O87       1.0  0.11363361626025884  0.25200971418587015  0.540367087525296  1.0000
  C   C259      1.0  0.08036097332286836  0.21867711021520253  0.5736398724138193  1.0000
  C   C260      1.0  0.1116155594314729  0.20792400056496865  0.6276993406248841  1.0000
  C   C261      1.0  0.02726529445564515  0.2510307281183711  0.5903300357086245  1.0000
  H   H689      1.0  0.09488611066362869  0.25639095836440123  0.507301270967042  1.0000
  H   H690      1.0  0.07162812452139046  0.18270689037615864  0.5508521771342317  1.0000
  H   H691      1.0  0.1260897132534577  0.24603894973179566  0.6437385657272987  1.0000
  H   H692      1.0  0.08868881088979849  0.18460039800860653  0.6574610552982929  1.0000
  H   H693      1.0  0.1449268524415936  0.18432257538669855  0.6182086326182153  1.0000
  H   H694      1.0  0.0021258136434943596  0.2524567556796473  0.555004705432748  1.0000
  H   H695      1.0  0.006773024144553054  0.23251049781644964  0.6229849864427514  1.0000
  H   H696      1.0  0.033831465580372984  0.2945304229292528  0.6021445700437773  1.0000
  O   O88       1.0  0.6039904878631044  0.1684965378237091  0.46009493266838075  1.0000
  C   C262      1.0  0.6516126972544084  0.19128620491188975  0.4340796209214778  1.0000
  C   C263      1.0  0.6993885216287701  0.17317744680798214  0.4691586210505794  1.0000
  C   C264      1.0  0.6515277560027305  0.16761148046294508  0.3753548667008181  1.0000
  H   H697      1.0  0.5766165709691762  0.16237877561557584  0.43344259910919364  1.0000
  H   H698      1.0  0.6485721031938995  0.23353661841962672  0.438339577201126  1.0000
  H   H699      1.0  0.7352825789195274  0.18809188214836797  0.4488890553667677  1.0000
  H   H700      1.0  0.6950627354118655  0.19322121635174666  0.505150095387815  1.0000
  H   H701      1.0  0.6960466134255472  0.1310571845960523  0.46956800772004514  1.0000
  H   H702      1.0  0.691996583387869  0.17424522271263435  0.35717989972567765  1.0000
  H   H703      1.0  0.6428087619499149  0.1252764286916625  0.3791948190024603  1.0000
  H   H704      1.0  0.6218225044799225  0.1888225097981439  0.34986725252469647  1.0000
  O   O89       1.0  0.19771352874284115  0.31780446386390104  0.558071009348433  1.0000
  C   C265      1.0  0.18109493983351665  0.36977991329834614  0.5504744161433432  1.0000
  C   C266      1.0  0.15365307009729492  0.3705000182736703  0.49770408291061574  1.0000
  C   C267      1.0  0.14229057298150155  0.388356341536847  0.5944913991728874  1.0000
  H   H705      1.0  0.17051351391529884  0.2952915195745656  0.5428660290655619  1.0000
  H   H706      1.0  0.21415933449470903  0.3966785762090635  0.5454138121336997  1.0000
  H   H707      1.0  0.11944953350001339  0.3467666310279995  0.4973946918677304  1.0000
  H   H708      1.0  0.1430257605629058  0.4122968871762086  0.4880500145978793  1.0000
  H   H709      1.0  0.17948666809166164  0.3547563811563677  0.46451999362277935  1.0000
  H   H710      1.0  0.13037068665083168  0.4296432217694526  0.5853396979073551  1.0000
  H   H711      1.0  0.10326907457525307  0.36405646429890953  0.5951013460929117  1.0000
  H   H712      1.0  0.16054260311925883  0.3867743482499436  0.6334685595205368  1.0000
  O   O90       1.0  0.3567995601546871  0.9714291693178724  0.7567266093094146  1.0000
  C   C268      1.0  0.36897209922306495  0.921840380065734  0.73255088285035  1.0000
  C   C269      1.0  0.35441475806101835  0.9263132204990527  0.6734977395947165  1.0000
  C   C270      1.0  0.42598157042882523  0.9061151723407441  0.7448860995074422  1.0000
  H   H713      1.0  0.3639755807819951  0.0021349834803698897  0.7335407518380328  1.0000
  H   H714      1.0  0.34281174244482976  0.8899619970599095  0.7493611391892644  1.0000
  H   H715      1.0  0.31469242822373317  0.9404744472237424  0.6694082725899329  1.0000
  H   H716      1.0  0.3844568548505705  0.9462242124522416  0.648931738575852  1.0000
  H   H717      1.0  0.35292957504908434  0.8858902767300858  0.656504631906092  1.0000
  H   H718      1.0  0.43950585128707487  0.9294110741474706  0.7814301092851048  1.0000
  H   H719      1.0  0.42853231101104156  0.8652445425323799  0.7475537104056682  1.0000
  H   H720      1.0  0.45314226200921753  0.9182541898677958  0.7149755480772034  1.0000
  O   O91       1.0  0.6286350216563138  0.4720517056172314  0.859598754321758  1.0000
  C   C271      1.0  0.5898573599078933  0.4612128582780114  0.9019535810389486  1.0000
  C   C272      1.0  0.5603053822082774  0.5120596506767081  0.9113607510027568  1.0000
  C   C273      1.0  0.5521776400715297  0.4129326950478526  0.8940123304833424  1.0000
  H   H721      1.0  0.6426221188747072  0.43913836644486126  0.845043839848125  1.0000
  H   H722      1.0  0.6091938990862216  0.45187625790833186  0.9379609439625057  1.0000
  H   H723      1.0  0.585084532992456  0.5398143246449588  0.9363587391404959  1.0000
  H   H724      1.0  0.544769244644531  0.5274491885062388  0.872542514292435  1.0000
  H   H725      1.0  0.5244035132313699  0.5052619978117976  0.9368787769168154  1.0000
  H   H726      1.0  0.5223059947827312  0.42082719000175717  0.8654892794069158  1.0000
  H   H727      1.0  0.5744098042248788  0.37738993062723286  0.8789487546027498  1.0000
  H   H728      1.0  0.5324463518905508  0.40259166436714167  0.9306018445455775  1.0000
  O   O92       1.0  0.6804312225959918  0.17417125941285105  0.17755137235191684  1.0000
  C   C274      1.0  0.7330918522556177  0.1842134412086172  0.19633994516675754  1.0000
  C   C275      1.0  0.7302726363546604  0.21316345465191408  0.24876825688667037  1.0000
  C   C276      1.0  0.7661979399923963  0.13188877488964953  0.19959509180377566  1.0000
  H   H729      1.0  0.6556753168068422  0.20508559700612358  0.17810730149799844  1.0000
  H   H730      1.0  0.7532186862741778  0.21050249875679805  0.16799883528277748  1.0000
  H   H731      1.0  0.7358764849639193  0.18440120319275427  0.28023065507989675  1.0000
  H   H732      1.0  0.7627340806564262  0.24134562221032202  0.2553845371589102  1.0000
  H   H733      1.0  0.6925295140646984  0.23135027196210164  0.2542411291340139  1.0000
  H   H734      1.0  0.7443626489396015  0.1045245369158204  0.2252108763218003  1.0000
  H   H735      1.0  0.7737208545952127  0.11636044901205339  0.16012821118127749  1.0000
  H   H736      1.0  0.804033587780276  0.14130004036233215  0.22120818957146599  1.0000
  O   O93       1.0  0.9427919787948488  0.46407663053216697  0.10663187703093555  1.0000
  C   C277      1.0  0.9064792821655474  0.5030438550957625  0.11785030567557092  1.0000
  C   C278      1.0  0.9199429284184778  0.5316770264533781  0.1686186030740337  1.0000
  C   C279      1.0  0.9065075706008253  0.5444036938367994  0.07112015020562841  1.0000
  H   H737      1.0  0.9494677556776118  0.44791196516201753  0.14101456748889563  1.0000
  H   H738      1.0  0.8657033011577602  0.4890790175645351  0.12093532328345638  1.0000
  H   H739      1.0  0.916561735139838  0.500427322748023  0.20023603814737934  1.0000
  H   H740      1.0  0.9616911080824546  0.5428028162777628  0.1700373120007135  1.0000
  H   H741      1.0  0.8953818567222847  0.5673026465971276  0.17914792696216875  1.0000
  H   H742      1.0  0.8888688333740804  0.5823326253881721  0.07844463302963442  1.0000
  H   H743      1.0  0.9471259552342577  0.5489311011603478  0.05467486613411422  1.0000
  H   H744      1.0  0.8776348195288779  0.5307673586628788  0.04348189127594453  1.0000
  O   O94       1.0  0.41418827110837514  0.5256151019360922  0.9715031898752554  1.0000
  C   C280      1.0  0.3913493839559683  0.477467318276666  0.9548750258252314  1.0000
  C   C281      1.0  0.3749840831846606  0.44659423796502556  0.005525732813842721  1.0000
  C   C282      1.0  0.34061692066966787  0.48936834856638023  0.9221228854845365  1.0000
  H   H745      1.0  0.43709685586938035  0.5220247784551686  0.004311072875086808  1.0000
  H   H746      1.0  0.4163969337154214  0.4532839697972505  0.9294922992218728  1.0000
  H   H747      1.0  0.4065764716366947  0.4407272990347623  0.034393403069052475  1.0000
  H   H748      1.0  0.3400922947305424  0.4649430692324411  0.024491981129944884  1.0000
  H   H749      1.0  0.3623798603831625  0.4096006085111062  0.9966018941310391  1.0000
  H   H750      1.0  0.3082581456062953  0.5119373957605843  0.9396016755943573  1.0000
  H   H751      1.0  0.3494396643004506  0.5141758637316808  0.8867415095613913  1.0000
  H   H752      1.0  0.3227348116054712  0.45367769532030483  0.9065303229419228  1.0000
  O   O95       1.0  0.9077709961216088  0.19383006344870812  0.14353601484448203  1.0000
  C   C283      1.0  0.9287348050338805  0.1438400308301864  0.1598406245481151  1.0000
  C   C284      1.0  0.9293900661750559  0.10560047560704379  0.11219993844745407  1.0000
  C   C285      1.0  0.9838475073097379  0.1497248774724087  0.18327667943999132  1.0000
  H   H753      1.0  0.9156756916759664  0.20099749503842418  0.1046096773762309  1.0000
  H   H754      1.0  0.9055504644912712  0.12834143397317418  0.19410693774161944  1.0000
  H   H755      1.0  0.8918931217425581  0.1043135299366543  0.09043864846855365  1.0000
  H   H756      1.0  0.9586119108686375  0.11783252082887814  0.08015000451543547  1.0000
  H   H757      1.0  0.9386151434523515  0.0648307845851677  0.12490729451247692  1.0000
  H   H758      1.0  0.010943999999223353  0.1650079734239151  0.15409578824466513  1.0000
  H   H759      1.0  0.9903204873169503  0.17331864245859474  0.22031348112415827  1.0000
  H   H760      1.0  0.9987120020944333  0.11115494271745478  0.18847091393987417  1.0000
  O   O96       1.0  0.26567763686663487  0.8732334206752178  0.27909693551803294  1.0000
  C   C286      1.0  0.21860108007511542  0.8978962701407849  0.25520835989817664  1.0000
  C   C287      1.0  0.19867603853837615  0.9468373824979878  0.2886479556583999  1.0000
  C   C288      1.0  0.227866485390913  0.9153988738454104  0.19471792722710665  1.0000
  H   H761      1.0  0.29557142772502176  0.8810245068133987  0.2535716665175998  1.0000
  H   H762      1.0  0.18476885861490064  0.8701198681062776  0.2575863360111807  1.0000
  H   H763      1.0  0.16320215620317982  0.9651285748458958  0.2699631515073928  1.0000
  H   H764      1.0  0.18820793694120266  0.9327635241110119  0.3280560410759723  1.0000
  H   H765      1.0  0.22893473565887465  0.9762823497198038  0.2950074972269906  1.0000
  H   H766      1.0  0.19371562021873437  0.9363956734733433  0.1796692916038391  1.0000
  H   H767      1.0  0.26015019733143957  0.9441197924747161  0.18910177340298012  1.0000
  H   H768      1.0  0.23600095807899252  0.8827265175961894  0.16572328148476734  1.0000
  O   O97       1.0  0.7281557028082236  0.5482826278281041  0.3692243066238856  1.0000
  C   C289      1.0  0.7614929521992971  0.5570597152826258  0.3248131805679553  1.0000
  C   C290      1.0  0.7489082204414412  0.6117928362530677  0.3020930969707956  1.0000
  C   C291      1.0  0.8190794929317532  0.5496503341501418  0.34187587174760065  1.0000
  H   H769      1.0  0.6911142557036509  0.5531386897982699  0.35493441650573915  1.0000
  H   H770      1.0  0.7558958532272366  0.524773159547976  0.29495294902500546  1.0000
  H   H771      1.0  0.7577211046316367  0.6133367957816831  0.2600493865793066  1.0000
  H   H772      1.0  0.7069052170224308  0.6284559624297238  0.31180560024272574  1.0000
  H   H773      1.0  0.7726985257175334  0.6412803502453779  0.32151969638927247  1.0000
  H   H774      1.0  0.8298542173259108  0.5731477059670682  0.377219934403922  1.0000
  H   H775      1.0  0.824901003523288  0.5085218089550881  0.35354850862892123  1.0000
  H   H776      1.0  0.8451437977005943  0.5619585896349293  0.3101768513541208  1.0000
  O   O98       1.0  0.15849561330957507  0.15059753538183868  0.28128146205865334  1.0000
  C   C292      1.0  0.12107046155715703  0.10863325798140255  0.28330285573311637  1.0000
  C   C293      1.0  0.12384219182201528  0.07505631515604204  0.23637824510419375  1.0000
  C   C294      1.0  0.12480546942605866  0.07649750126924251  0.3357624893482297  1.0000
  H   H777      1.0  0.17732707405477544  0.14606420269195572  0.3150734882861878  1.0000
  H   H778      1.0  0.07901534179366385  0.12463211727120406  0.27935126622151274  1.0000
  H   H779      1.0  0.12066277154170757  0.09837515896966542  0.19913857020100972  1.0000
  H   H780      1.0  0.1585214559705727  0.0463301825065547  0.23504220263246647  1.0000
  H   H781      1.0  0.0884450788066146  0.04973045449459376  0.23856718922768744  1.0000
  H   H782      1.0  0.09307339191400667  0.04811124257495517  0.3361145404839423  1.0000
  H   H783      1.0  0.15934459003239979  0.051365446052065514  0.333174245435768  1.0000
  H   H784      1.0  0.12603905180868102  0.10267266549898105  0.3726394003778279  1.0000
  O   O99       1.0  0.7805659076074449  0.1832372611611305  0.6434713798974199  1.0000
  C   C295      1.0  0.8101342669449364  0.21027933845445262  0.6816011369133723  1.0000
  C   C296      1.0  0.7839171440279681  0.2035556870610586  0.734262904170172  1.0000
  C   C297      1.0  0.8680967491489985  0.19253628265234274  0.6786464698100265  1.0000
  H   H785      1.0  0.7866969229618203  0.1462344736722212  0.6536565967441921  1.0000
  H   H786      1.0  0.8109808738393249  0.252649769458077  0.6673503426024656  1.0000
  H   H787      1.0  0.8128276636441822  0.21174239498266478  0.7665496121941323  1.0000
  H   H788      1.0  0.7479660545892123  0.2290496528545356  0.7377552797789525  1.0000
  H   H789      1.0  0.773360385001841  0.16082414191844258  0.7417243881279831  1.0000
  H   H790      1.0  0.8680864348285904  0.14928191240163935  0.6870247886988673  1.0000
  H   H791      1.0  0.8835523439580737  0.19935587233517582  0.6397460227174396  1.0000
  H   H792      1.0  0.8926482647903585  0.2161990243580408  0.7065557444668202  1.0000
  O   O100      1.0  0.009233486987265864  0.6333334494780138  0.7777918926053058  1.0000
  C   C298      1.0  0.02394112616780406  0.6859921455007799  0.7636564516816362  1.0000
  C   C299      1.0  0.9759501496026243  0.7249195163891831  0.7645923223788652  1.0000
  C   C300      1.0  0.07520968838478942  0.7057714028264784  0.7937927042202115  1.0000
  H   H793      1.0  0.00954361641461533  0.6334021232093937  0.8175215033030763  1.0000
  H   H794      1.0  0.042291955089256976  0.6840118763021272  0.7245584400243023  1.0000
  H   H795      1.0  0.9883893059011052  0.7650613197764315  0.7560882602341573  1.0000
  H   H796      1.0  0.9493720640407306  0.709552957943038  0.7320193931564487  1.0000
  H   H797      1.0  0.9552534887461205  0.7245991664802696  0.804083794345232  1.0000
  H   H798      1.0  0.09423083043658675  0.7436051547516094  0.7798887283365913  1.0000
  H   H799      1.0  0.06656060983754906  0.7132589759710641  0.8356920336094769  1.0000
  H   H800      1.0  0.10546832387384371  0.6739032585928402  0.7952805417580917  1.0000
  O   O101      1.0  0.6182923603268753  0.057813919806564466  0.16943915855575875  1.0000
  C   C301      1.0  0.6231929031020172  0.02417575031639789  0.21389345684193664  1.0000
  C   C302      1.0  0.5989307562366133  0.04777428358825599  0.26539403162476954  1.0000
  C   C303      1.0  0.5962763416246519  0.9706799040485209  0.19701268776887115  1.0000
  H   H801      1.0  0.6374252298488782  0.09030500803775883  0.1814833189281898  1.0000
  H   H802      1.0  0.6668792978480843  0.0172912543727273  0.22054526823820655  1.0000
  H   H803      1.0  0.6147573246252676  0.08945495097536012  0.27434852896890927  1.0000
  H   H804      1.0  0.5543997264047508  0.04644793912249449  0.25971111941550096  1.0000
  H   H805      1.0  0.6035793190508449  0.026622795794891404  0.3027150262364442  1.0000
  H   H806      1.0  0.5944162036418418  0.9399041461492702  0.2272676492286051  1.0000
  H   H807      1.0  0.5557376651368491  0.9806252373975846  0.18146149583022245  1.0000
  H   H808      1.0  0.6152003843301255  0.9558904533008049  0.1605289901249069  1.0000
  O   O102      1.0  0.32253637505519406  0.9036116040683168  0.37358930197036294  1.0000
  C   C304      1.0  0.3744038656828425  0.9149775803785423  0.3566293742655769  1.0000
  C   C305      1.0  0.37192657666061135  0.9758756931245063  0.3415144923945877  1.0000
  C   C306      1.0  0.4139072444466118  0.9029062882538736  0.4033402852176541  1.0000
  H   H809      1.0  0.3023238415193809  0.8939332291092217  0.34076446833525803  1.0000
  H   H810      1.0  0.38565065870859994  0.8909464058992562  0.32042562254617984  1.0000
  H   H811      1.0  0.34008440749617025  0.9840214093761238  0.3121821290023519  1.0000
  H   H812      1.0  0.36040141110141455  0.9985520545798868  0.37751897335228835  1.0000
  H   H813      1.0  0.4087118345754442  0.9910374824888855  0.32691930674243025  1.0000
  H   H814      1.0  0.4170230344357886  0.858586360432888  0.40629119797199076  1.0000
  H   H815      1.0  0.4542890450515241  0.9195819279994412  0.3998576549318836  1.0000
  H   H816      1.0  0.3961529263927195  0.918272922645863  0.4394180280695405  1.0000
  O   O103      1.0  0.38841185675607315  0.7951469108702302  0.18823522058512857  1.0000
  C   C307      1.0  0.3506424933876482  0.7527428636911913  0.18173916656044206  1.0000
  C   C308      1.0  0.2943324038823075  0.7766988044676985  0.16922580043640092  1.0000
  C   C309      1.0  0.3695179605745154  0.7137062067330184  0.13632361933879136  1.0000
  H   H817      1.0  0.41995760372398305  0.787762708369635  0.16643506263652091  1.0000
  H   H818      1.0  0.35208323376633915  0.7268589831860242  0.21736072896942804  1.0000
  H   H819      1.0  0.2679916228403982  0.7428514526867371  0.1632772193260259  1.0000
  H   H820      1.0  0.2812422334455918  0.799068391632029  0.20561437531410107  1.0000
  H   H821      1.0  0.29618772586477915  0.7981956955508658  0.13088633507545552  1.0000
  H   H822      1.0  0.3448363783308813  0.6815858928726706  0.13117787526635952  1.0000
  H   H823      1.0  0.3734936292925674  0.7382556750175636  0.1003785308145921  1.0000
  H   H824      1.0  0.4097925224664731  0.6996764875935312  0.14813439972255754  1.0000
  O   O104      1.0  0.664626837551037  0.11965281428180678  0.896285571312894  1.0000
  C   C310      1.0  0.650950382692658  0.15111701370369346  0.853005643098703  1.0000
  C   C311      1.0  0.6944544954840352  0.14507044654944215  0.813817305589577  1.0000
  C   C312      1.0  0.5929440650244839  0.14298875982714757  0.8302199196277086  1.0000
  H   H825      1.0  0.6336832635911122  0.09913800912897203  0.9019842206144182  1.0000
  H   H826      1.0  0.6521534396173881  0.19178392653868798  0.8641276407999678  1.0000
  H   H827      1.0  0.6970442940993802  0.10409225635174665  0.8028629911431647  1.0000
  H   H828      1.0  0.6880744958545612  0.16703666664710792  0.7764799289424046  1.0000
  H   H829      1.0  0.7314700808417437  0.15635975771689395  0.8320177927540942  1.0000
  H   H830      1.0  0.5832606843992509  0.0985960818517743  0.8248614906103388  1.0000
  H   H831      1.0  0.5612478510486387  0.15605569441414527  0.8552752432992009  1.0000
  H   H832      1.0  0.5867091485980754  0.15792269615173118  0.790774255729291  1.0000
  O   O105      1.0  0.6279520410772585  0.5144082007572606  0.32433470306140016  1.0000
  C   C313      1.0  0.5944514695518507  0.5107712735663237  0.37191247021708335  1.0000
  C   C314      1.0  0.5872340779229555  0.5652020187427221  0.40027891062464066  1.0000
  C   C315      1.0  0.5383813577806849  0.48587032314346407  0.35721000847548245  1.0000
  H   H833      1.0  0.6498969593596884  0.48261718608915  0.31819185685546664  1.0000
  H   H834      1.0  0.6109253736755749  0.4792621575455067  0.3975860069769485  1.0000
  H   H835      1.0  0.5671287445307416  0.5607813566829524  0.4386176081770777  1.0000
  H   H836      1.0  0.6278239085094666  0.5777233098752463  0.41002497360963014  1.0000
  H   H837      1.0  0.568866665769161  0.5965857326675373  0.3753637400382979  1.0000
  H   H838      1.0  0.5181366677406297  0.5084388013402702  0.325986545450968  1.0000
  H   H839      1.0  0.5399719965675354  0.44312745888908806  0.34655048557687373  1.0000
  H   H840      1.0  0.5153168828422745  0.490101839096146  0.3939556019832998  1.0000
  O   O106      1.0  0.16349381965697227  0.1592368399772691  0.8709779265206259  1.0000
  C   C316      1.0  0.10936590515443802  0.1574785648549882  0.8694159173289187  1.0000
  C   C317      1.0  0.08563509648886918  0.21565668951806677  0.8839641573159529  1.0000
  C   C318      1.0  0.09702630868858339  0.14515153921564472  0.8106548359445427  1.0000
  H   H841      1.0  0.16960475628206295  0.12249407117770843  0.857187483709716  1.0000
  H   H842      1.0  0.09181464958773983  0.1254493355096298  0.8947133992948448  1.0000
  H   H843      1.0  0.0988203515201158  0.24744228181195202  0.8567372950360611  1.0000
  H   H844      1.0  0.04146328016178279  0.21312993350821022  0.8868774156436003  1.0000
  H   H845      1.0  0.10064422834449843  0.22440823809496752  0.9261216477035513  1.0000
  H   H846      1.0  0.10621929546692559  0.10351987916487866  0.805284272292238  1.0000
  H   H847      1.0  0.05311023541910516  0.14737202313131595  0.8101017315067178  1.0000
  H   H848      1.0  0.11889303535653377  0.1677723568229993  0.7776929968017883  1.0000
  O   O107      1.0  0.7501556436559481  0.010106228794984462  0.3082051143330825  1.0000
  C   C319      1.0  0.7357460394276688  0.048913714993321866  0.349425709748611  1.0000
  C   C320      1.0  0.7091051959577966  0.021851049219027967  0.3976875950805232  1.0000
  C   C321      1.0  0.7856158935133036  0.0804883567703964  0.3643972531828396  1.0000
  H   H849      1.0  0.7884781110645758  0.002632624914260509  0.30809359084307625  1.0000
  H   H850      1.0  0.7077468941965257  0.07625020012900456  0.3315288874693773  1.0000
  H   H851      1.0  0.7377593752878269  0.9966612202884105  0.417088977695378  1.0000
  H   H852      1.0  0.6991683566146141  0.049809001583338654  0.4311163460922958  1.0000
  H   H853      1.0  0.6699914094340962  0.0024883067363478334  0.3873816406440217  1.0000
  H   H854      1.0  0.773817551150227  0.11342758631843072  0.3909997595086694  1.0000
  H   H855      1.0  0.8082183863029896  0.052732403253839176  0.38893993365845314  1.0000
  H   H856      1.0  0.8098739826439442  0.0907134090017391  0.3285964418814643  1.0000
  O   O108      1.0  0.2998769642350868  0.2019479839189794  0.19358672938536725  1.0000
  C   C322      1.0  0.3170629342080747  0.150050062069905  0.1797385721067278  1.0000
  C   C323      1.0  0.2696897086942472  0.11006274565124434  0.18663481738940135  1.0000
  C   C324      1.0  0.3430251574241651  0.1542868966174126  0.12325125283463505  1.0000
  H   H857      1.0  0.26728052400837554  0.20795162536876  0.17064505927461215  1.0000
  H   H858      1.0  0.35110489264208233  0.1373825318465193  0.20733428426591746  1.0000
  H   H859      1.0  0.2833755486299041  0.07078407274739278  0.18820545339281144  1.0000
  H   H860      1.0  0.2503470266502295  0.11783364928074085  0.22475968245917113  1.0000
  H   H861      1.0  0.23698197281506214  0.11372420772369454  0.15841959311004347  1.0000
  H   H862      1.0  0.3860911398333558  0.17066841798959637  0.1298406761115919  1.0000
  H   H863      1.0  0.3456841983706656  0.11640167766488561  0.10087680235292174  1.0000
  H   H864      1.0  0.32309076858425884  0.18542125687608607  0.09963697292758811  1.0000
  O   O109      1.0  0.3313022006555555  0.6168984133239969  0.9377927298819886  1.0000
  C   C325      1.0  0.36016232443863644  0.6650305358370117  0.9424250625524108  1.0000
  C   C326      1.0  0.34690416736131385  0.6898051744042284  0.9974151309781678  1.0000
  C   C327      1.0  0.4194530374282756  0.6608038736587792  0.9328552909457324  1.0000
  H   H865      1.0  0.357821585646612  0.5863988096238156  0.9437658454762546  1.0000
  H   H866      1.0  0.34325188240972015  0.6948854964998024  0.9139972670480702  1.0000
  H   H867      1.0  0.30737564773976667  0.7069824225338027  0.999350578609601  1.0000
  H   H868      1.0  0.3492980702323728  0.6615273154797805  0.02895731326286799  1.0000
  H   H869      1.0  0.37652883875296206  0.7175108171788076  0.008528330890174685  1.0000
  H   H870      1.0  0.4378223832189298  0.7000049525743492  0.935236831741946  1.0000
  H   H871      1.0  0.443239626527092  0.6399199247838255  0.961101448643381  1.0000
  H   H872      1.0  0.4275867327649135  0.6470263996942236  0.8948604539088812  1.0000
  O   O110      1.0  0.5748025058707144  0.3484193831772085  0.0813596969597866  1.0000
  C   C328      1.0  0.6142384626178551  0.38303473313236935  0.060114951645995736  1.0000
  C   C329      1.0  0.6432752563156011  0.40156736368086926  0.10970912072678178  1.0000
  C   C330      1.0  0.6461463472043529  0.34536915751364466  0.024018404841664544  1.0000
  H   H873      1.0  0.5528615312054707  0.338137280507245  0.05238604010399542  1.0000
  H   H874      1.0  0.5969182927596076  0.4168635040269519  0.03601077094361181  1.0000
  H   H875      1.0  0.6762537804819856  0.42408127498744574  0.09579821508309722  1.0000
  H   H876      1.0  0.6191228507974097  0.43128186747513364  0.12806238866293718  1.0000
  H   H877      1.0  0.6524084148664879  0.3709552503875741  0.13856532952147652  1.0000
  H   H878      1.0  0.6202398284756659  0.3252256384714546  0.996371983920654  1.0000
  H   H879      1.0  0.6720761109280691  0.37170390901219746  0.9984428064110091  1.0000
  H   H880      1.0  0.6769137439035444  0.3206128346187855  0.043869530793287  1.0000
  O   O111      1.0  0.5849197694775711  0.054964263538870226  0.9346251030767502  1.0000
  C   C331      1.0  0.6087928927026818  0.004707807332266967  0.9247418826924229  1.0000
  C   C332      1.0  0.6218458631949066  0.9997226135696683  0.8657446343852365  1.0000
  C   C333      1.0  0.6576674928028973  0.0016216990466297997  0.9595742500842398  1.0000
  H   H881      1.0  0.578212594356141  0.05549428401866554  0.9724482372957187  1.0000
  H   H882      1.0  0.5854582366462032  0.96946133826669  0.9396624994678535  1.0000
  H   H883      1.0  0.6300453880711786  0.9580428992830274  0.8595115374781104  1.0000
  H   H884      1.0  0.5903473271061411  0.008433308849113285  0.8367436370255418  1.0000
  H   H885      1.0  0.6547390667780145  0.022218688338663275  0.8541850375250722  1.0000
  H   H886      1.0  0.6850012904099895  0.03558928303947775  0.9573242164756062  1.0000
  H   H887      1.0  0.6461189689263386  0.0008569709175742806  0.0032835108913593647  1.0000
  H   H888      1.0  0.6814467258906285  0.9642292970508073  0.9512826168157597  1.0000
  O   O112      1.0  0.6821048689976604  0.7770089160020479  0.3267545054534343  1.0000
  C   C334      1.0  0.6623876490884762  0.8300853789802057  0.3283627016470674  1.0000
  C   C335      1.0  0.6875167654798192  0.8589538071033684  0.376847709507214  1.0000
  C   C336      1.0  0.6772110384832281  0.8582868666047011  0.27515850451858287  1.0000
  H   H889      1.0  0.6512964428543695  0.7548201328306124  0.3312475951959705  1.0000
  H   H890      1.0  0.6211353142744154  0.834476084181859  0.3391869876629388  1.0000
  H   H891      1.0  0.6725230387018911  0.8451238513795092  0.41371703668819443  1.0000
  H   H892      1.0  0.7330841924611559  0.8593891310679203  0.3756425296774469  1.0000
  H   H893      1.0  0.6746227563990331  0.9015604241156701  0.3772655901825608  1.0000
  H   H894      1.0  0.6586123127834503  0.898321355730773  0.27354949319939714  1.0000
  H   H895      1.0  0.7193949965939552  0.8618663067678186  0.27351085266960024  1.0000
  H   H896      1.0  0.6711610963115665  0.8319113886501808  0.2396966427007441  1.0000
  O   O113      1.0  0.12577782872162555  0.614176728189473  0.5098007437305948  1.0000
  C   C337      1.0  0.15700377569215343  0.5824860884795414  0.47603431363828114  1.0000
  C   C338      1.0  0.21621174667861812  0.6006213910476664  0.4797474606351044  1.0000
  C   C339      1.0  0.14881907735325126  0.5236305097886548  0.49029557376366195  1.0000
  H   H897      1.0  0.13214831046799985  0.6032151710543086  0.5493654016453033  1.0000
  H   H898      1.0  0.1479024607168209  0.5887539578475003  0.43267573892979  1.0000
  H   H899      1.0  0.2213649326485348  0.6413924423351599  0.46519891686469333  1.0000
  H   H900      1.0  0.23302799478677808  0.5956273752408544  0.5198463001461491  1.0000
  H   H901      1.0  0.24161161358304953  0.577969146572845  0.452548734898802  1.0000
  H   H902      1.0  0.11000946785225467  0.5093926465499913  0.4783683405672181  1.0000
  H   H903      1.0  0.17766071528166413  0.5021630065662059  0.46955739001388264  1.0000
  H   H904      1.0  0.15831006051449686  0.5182931265178106  0.5325565481175839  1.0000
  O   O114      1.0  0.37425904848904273  0.6582710312455887  0.6578555013128113  1.0000
  C   C340      1.0  0.39517750500843  0.6841517260015224  0.7028717201166941  1.0000
  C   C341      1.0  0.36126151727019995  0.6710794163573437  0.7509476450907518  1.0000
  C   C342      1.0  0.45645853590548646  0.6656669131036759  0.7063816909063682  1.0000
  H   H905      1.0  0.3757675902159609  0.6880220900411018  0.6318792853731482  1.0000
  H   H906      1.0  0.39325779407163025  0.7278019073038283  0.6975614499098431  1.0000
  H   H907      1.0  0.3732811244704955  0.697900077319381  0.784434299838431  1.0000
  H   H908      1.0  0.3173922520885564  0.6766268395901129  0.7446497047470991  1.0000
  H   H909      1.0  0.3648287472501606  0.6262515090515072  0.7567096968458743  1.0000
  H   H910      1.0  0.47563531723506763  0.6924741503395384  0.7353874660946682  1.0000
  H   H911      1.0  0.4587880883915726  0.624275411307573  0.7155931166199563  1.0000
  H   H912      1.0  0.4825946238114741  0.6744470344157425  0.6709642904100168  1.0000
  O   O115      1.0  0.11715640360697643  0.9953604624149365  0.03573932618212577  1.0000
  C   C343      1.0  0.09072832102788644  0.04183148986930496  0.016112304488000946  1.0000
  C   C344      1.0  0.05365560411662406  0.02885576306018521  0.9671963640031092  1.0000
  C   C345      1.0  0.059595591417940554  0.06651896885047386  0.06298680557178937  1.0000
  H   H913      1.0  0.14489767253729663  0.9827383410467905  0.011613106870530772  1.0000
  H   H914      1.0  0.12109087190337384  0.06987291665692093  0.005595544269177065  1.0000
  H   H915      1.0  0.07629914066480954  0.012711802276696035  0.930223305932406  1.0000
  H   H916      1.0  0.023135847729425046  0.9994958508100023  0.9776213880041236  1.0000
  H   H917      1.0  0.034370892609046196  0.07034862551995244  0.9546528326669079  1.0000
  H   H918      1.0  0.06206378006040386  0.11086684394687198  0.06244151282011464  1.0000
  H   H919      1.0  0.017977614740659512  0.05401677034412666  0.05175833736370054  1.0000
  H   H920      1.0  0.06338008536033414  0.048059600196159735  0.10189243845338024  1.0000
  O   O116      1.0  0.02419696902858964  0.8784105912174943  0.75281430527085  1.0000
  C   C346      1.0  0.013696956260084405  0.8644427576028331  0.8079864663831196  1.0000
  C   C347      1.0  0.04302766395339273  0.902593446645356  0.8473991399634979  1.0000
  C   C348      1.0  0.9511290023571051  0.8665052379789954  0.8163528025287138  1.0000
  H   H921      1.0  0.9876760265088236  0.8873814511136431  0.7396965668903206  1.0000
  H   H922      1.0  0.024519435480584436  0.8234077058370717  0.8138133615747686  1.0000
  H   H923      1.0  0.08452593009914088  0.8950823628940978  0.8490849965483235  1.0000
  H   H924      1.0  0.032911083063889256  0.8993464906284645  0.8888978800749334  1.0000
  H   H925      1.0  0.03951357459275553  0.9446977725562976  0.8356647308796844  1.0000
  H   H926      1.0  0.9340373209389621  0.8322817932323618  0.7951293156893368  1.0000
  H   H927      1.0  0.9428156597106127  0.8569341009376106  0.8570821416547546  1.0000
  H   H928      1.0  0.9358176744326762  0.9050781302480277  0.8038946482381444  1.0000
  O   O117      1.0  0.7547347363014917  0.13501618737634088  0.9669893197269958  1.0000
  C   C349      1.0  0.7376626787328128  0.1578045176586151  0.015274734751447056  1.0000
  C   C350      1.0  0.7229244580296492  0.21530953032853692  0.0030695461272734212  1.0000
  C   C351      1.0  0.6922040065979588  0.12399203337019735  0.042497843079952254  1.0000
  H   H929      1.0  0.7224589497670706  0.13228173260419546  0.9419654885306366  1.0000
  H   H930      1.0  0.7710609034914488  0.1631515897901139  0.0433415676108622  1.0000
  H   H931      1.0  0.6999155364821982  0.21866654936901755  0.9669701698432189  1.0000
  H   H932      1.0  0.7045816940797012  0.23381954134176114  0.03613938224855772  1.0000
  H   H933      1.0  0.7596573105286449  0.23642496293178436  0.9937754925280881  1.0000
  H   H934      1.0  0.6934006928194669  0.08318325131254815  0.03033209142288383  1.0000
  H   H935      1.0  0.6936065235525625  0.12611002896558596  0.08709504361131451  1.0000
  H   H936      1.0  0.6522838092077944  0.14000993757150937  0.02987192998630853  1.0000
  O   O118      1.0  0.25704648511722006  0.45367849175761316  0.1749226107351538  1.0000
  C   C352      1.0  0.27455623687650926  0.40569778458153044  0.15739558626659228  1.0000
  C   C353      1.0  0.2994692459884597  0.36859911606078183  0.19950326810907762  1.0000
  C   C354      1.0  0.22247457260632808  0.37675431202376597  0.13457106083117915  1.0000
  H   H937      1.0  0.25211350193557036  0.44474157050850016  0.21407463937118584  1.0000
  H   H938      1.0  0.3046145634122486  0.4100087056917097  0.1246703880123356  1.0000
  H   H939      1.0  0.33542769183592286  0.3862593920856063  0.21345479563408545  1.0000
  H   H940      1.0  0.27178517938844865  0.35527376440674097  0.23047655240134204  1.0000
  H   H941      1.0  0.30984897445656734  0.32718793355523734  0.18439473785544377  1.0000
  H   H942      1.0  0.23386730173481474  0.3381992042038041  0.1230078619113166  1.0000
  H   H943      1.0  0.19190055032892067  0.37214014313401284  0.16406544772357626  1.0000
  H   H944      1.0  0.20992250949013472  0.40160797601925924  0.10043194141940352  1.0000
  O   O119      1.0  0.0387153208193709  0.38378517429740866  0.43556851971306537  1.0000
  C   C355      1.0  0.9849820042230433  0.39393785530834025  0.4524938264510847  1.0000
  C   C356      1.0  0.9732313653930427  0.3683781550069398  0.5078327228868322  1.0000
  C   C357      1.0  0.9777999922241121  0.4541143087737188  0.4590326737720424  1.0000
  H   H945      1.0  0.0395180159061812  0.3461431088877343  0.43138121855609396  1.0000
  H   H946      1.0  0.9576887056320081  0.3810854446690517  0.41842786435885077  1.0000
  H   H947      1.0  0.006672060976328664  0.3689143088094912  0.5337407959207804  1.0000
  H   H948      1.0  0.9402967530342364  0.38195233864676875  0.5279910684663922  1.0000
  H   H949      1.0  0.9636705426720659  0.3269805858933694  0.49840272503370464  1.0000
  H   H950      1.0  0.9922076242461763  0.4756642124418545  0.42470832324156516  1.0000
  H   H951      1.0  0.9352899958209806  0.4632183442802862  0.46323976935841055  1.0000
  H   H952      1.0  0.0008431180302421737  0.4673831968795368  0.4936929967884889  1.0000
  O   O120      1.0  0.13893606572058978  0.5767175523012418  0.6121753376960727  1.0000
  C   C358      1.0  0.17452729233748288  0.6192489733848755  0.627341791169102  1.0000
  C   C359      1.0  0.14410953917145705  0.6549612036007635  0.6655880387718432  1.0000
  C   C360      1.0  0.2305335463776075  0.5997357265177712  0.650310820472005  1.0000
  H   H953      1.0  0.1098658355726729  0.5734718857732124  0.6399573139964936  1.0000
  H   H954      1.0  0.18573089404712617  0.6433225049688566  0.5898525061334439  1.0000
  H   H955      1.0  0.14699332375198634  0.6963906254351993  0.6573993972133773  1.0000
  H   H956      1.0  0.09943837534031151  0.653844832296394  0.6575922594977408  1.0000
  H   H957      1.0  0.1568338077000202  0.6495318638293996  0.7073576053422113  1.0000
  H   H958      1.0  0.2587644031745769  0.6340406993269391  0.6548667062942528  1.0000
  H   H959      1.0  0.22646677445632166  0.5781482817452791  0.6877305597907531  1.0000
  H   H960      1.0  0.2488442488550243  0.5743801507525167  0.6202081272488668  1.0000
  O   O121      1.0  0.027897220739169552  0.642943454489106  0.9093197334788297  1.0000
  C   C361      1.0  0.06653310352517951  0.667196007525566  0.9452379081477684  1.0000
  C   C362      1.0  0.056633700711709256  0.7256895241460866  0.9546613834059856  1.0000
  C   C363      1.0  0.06472412003869984  0.6390650513234661  0.9988768793292735  1.0000
  H   H961      1.0  0.9953402699656966  0.6431770432294367  0.9287030278612373  1.0000
  H   H962      1.0  0.10494748011728267  0.6570725247095536  0.9303572591651077  1.0000
  H   H963      1.0  0.05470148614655357  0.7500719155496659  0.921558329526752  1.0000
  H   H964      1.0  0.01659239196692812  0.7299343882767214  0.9735492126676982  1.0000
  H   H965      1.0  0.08668344815041219  0.741540095795345  0.9819154724698259  1.0000
  H   H966      1.0  0.07038500994126842  0.5942578486042898  0.994533194943343  1.0000
  H   H967      1.0  0.09441937931509882  0.6551473158503065  0.027933467456416228  1.0000
  H   H968      1.0  0.0243270423904415  0.6457352921120488  0.012609303889077106  1.0000
  O   O122      1.0  0.2799924213167823  0.5030796518314362  0.3739153398651451  1.0000
  C   C364      1.0  0.3188843557152438  0.4815556099101648  0.40733658217889984  1.0000
  C   C365      1.0  0.2880759673460639  0.4647751585376784  0.45797868144167486  1.0000
  C   C366      1.0  0.3457901098206473  0.4363294266925788  0.3789656291567584  1.0000
  H   H969      1.0  0.2986660960218287  0.5303060214573965  0.35184160629757005  1.0000
  H   H970      1.0  0.349198909214834  0.5100064989154683  0.41617673132477667  1.0000
  H   H971      1.0  0.2746462975142802  0.49654979196553567  0.48478792865786346  1.0000
  H   H972      1.0  0.2494965524821212  0.4445221259858083  0.44413985238033576  1.0000
  H   H973      1.0  0.3103626983896424  0.4355927889829352  0.48251628030530624  1.0000
  H   H974      1.0  0.3838094431696563  0.42938980082561395  0.4021497422594575  1.0000
  H   H975      1.0  0.32338866993545146  0.40038512506275453  0.3803880160889809  1.0000
  H   H976      1.0  0.35505094526426106  0.4471472282852731  0.3382210459900159  1.0000
  O   O123      1.0  0.9906477387547504  0.5950420387505655  0.6015664384681297  1.0000
  C   C367      1.0  0.9763922425610825  0.5433790138189285  0.5806715685012591  1.0000
  C   C368      1.0  0.9951556932063895  0.5029033608507475  0.6202271634126885  1.0000
  C   C369      1.0  0.9159503854086186  0.5371332518488249  0.5715858100976938  1.0000
  H   H977      1.0  0.9684374923334573  0.5992337006304326  0.6325487666778067  1.0000
  H   H978      1.0  0.9952982729799529  0.5337941118915033  0.5462494979361713  1.0000
  H   H979      1.0  0.9738833656343849  0.4650013526975687  0.6202528350961312  1.0000
  H   H980      1.0  0.037999387298765175  0.4928997818106673  0.6109865768806699  1.0000
  H   H981      1.0  0.9944616014719959  0.5174936167826113  0.6619954782683054  1.0000
  H   H982      1.0  0.9032540168384237  0.5619827825613327  0.5377330737166182  1.0000
  H   H983      1.0  0.9053572988211532  0.49511750742099264  0.5629551327115886  1.0000
  H   H984      1.0  0.8929394161067304  0.5489938212942153  0.6052826189248757  1.0000
  O   O124      1.0  0.6653597590834048  0.837309937352009  0.9454505644639065  1.0000
  C   C370      1.0  0.7066354526124499  0.8272119369512622  0.9809717145382248  1.0000
  C   C371      1.0  0.7016115558933657  0.8654685752178778  0.028683150355880427  1.0000
  C   C372      1.0  0.7073811159488839  0.7706051783259912  0.996393863751818  1.0000
  H   H985      1.0  0.6831205997322075  0.8381018628409684  0.9101448771233608  1.0000
  H   H986      1.0  0.746373102436281  0.8339522542824196  0.9594734580203511  1.0000
  H   H987      1.0  0.661024038275313  0.8645518162326924  0.04001863858470234  1.0000
  H   H988      1.0  0.7240792042521721  0.8465987200710352  0.05931168306116197  1.0000
  H   H989      1.0  0.7185213907531508  0.9023018400515411  0.021179120025197173  1.0000
  H   H990      1.0  0.6740531192268888  0.7625682932643226  0.02207980075826166  1.0000
  H   H991      1.0  0.7060324457906679  0.7422864414515098  0.9658567189472804  1.0000
  H   H992      1.0  0.7437364344992793  0.7588365653811204  0.015159741483161016  1.0000
  O   O125      1.0  0.2518136669475179  0.4054502412893599  0.6907417278188106  1.0000
  C   C373      1.0  0.27544747567231814  0.45509181568655643  0.6859290464329361  1.0000
  C   C374      1.0  0.283997876313018  0.4781173467094154  0.7406788520293858  1.0000
  C   C375      1.0  0.32720750054472386  0.4505358920901977  0.6538226111785838  1.0000
  H   H993      1.0  0.2755570838160867  0.37658075151486764  0.7051859907879675  1.0000
  H   H994      1.0  0.2512317241628837  0.4810712551495638  0.6664574735555514  1.0000
  H   H995      1.0  0.3059286503778089  0.44760265006497624  0.7641826327212672  1.0000
  H   H996      1.0  0.3032100368749409  0.5167796168988655  0.7406694478662412  1.0000
  H   H997      1.0  0.2489104386403906  0.48443288183633926  0.7605065715513575  1.0000
  H   H998      1.0  0.32221632853203513  0.445965937996155  0.6110080397329052  1.0000
  H   H999      1.0  0.3502993915352596  0.4854445930078561  0.6591466088949861  1.0000
  H   H1000     1.0  0.34889050387743403  0.41375067194947573  0.665237428619059  1.0000
  O   O126      1.0  0.10262919028060122  0.022157020313192118  0.6799756493222225  1.0000
  C   C376      1.0  0.1257115633880373  0.05411536276188968  0.6400903381128462  1.0000
  C   C377      1.0  0.186846525774165  0.04078412431086958  0.639454492069469  1.0000
  C   C378      1.0  0.1013988405666341  0.03705591578194393  0.5873308122520805  1.0000
  H   H1001     1.0  0.10311056844125716  0.9843172440137935  0.6721936635638096  1.0000
  H   H1002     1.0  0.12363929951713164  0.09609320583963346  0.6495441499584008  1.0000
  H   H1003     1.0  0.19640841014647137  0.995737578860205  0.6374551867069945  1.0000
  H   H1004     1.0  0.20510044262936006  0.057877152077852316  0.604985286571081  1.0000
  H   H1005     1.0  0.20683955832493084  0.05392054775479973  0.6738859667977012  1.0000
  H   H1006     1.0  0.11830510159789849  0.06064687236238434  0.5560342392250687  1.0000
  H   H1007     1.0  0.11211365084693652  0.9947876776652921  0.5791627989368083  1.0000
  H   H1008     1.0  0.05783872467356577  0.04030018188451157  0.5886448992176408  1.0000
  O   O127      1.0  0.4755671743293527  0.4652324761801304  0.6598381216516558  1.0000
  C   C379      1.0  0.47407103245139065  0.49970513264177285  0.7057149774499888  1.0000
  C   C380      1.0  0.460333450731383  0.4682172138615477  0.7532737466135835  1.0000
  C   C381      1.0  0.526794913468171  0.528754174694409  0.7125433458362131  1.0000
  H   H1009     1.0  0.46943210163783605  0.4880363634317942  0.6286536029403149  1.0000
  H   H1010     1.0  0.44084712686485034  0.5264116159854799  0.7017887188595846  1.0000
  H   H1011     1.0  0.45323630403828546  0.49422513102801  0.7881805890449818  1.0000
  H   H1012     1.0  0.4254335853770933  0.4454352825136731  0.7443356495955635  1.0000
  H   H1013     1.0  0.49110293295912255  0.4402026349239036  0.7607564655860974  1.0000
  H   H1014     1.0  0.5231131265382815  0.5538000564286458  0.7499049909580108  1.0000
  H   H1015     1.0  0.5595656346952448  0.49833052479084844  0.7221719695077949  1.0000
  H   H1016     1.0  0.5334880958660282  0.5517450843528792  0.6755315522040022  1.0000
  O   O128      1.0  0.9014491662373073  0.9015902294797203  0.028725649140866828  1.0000
  C   C382      1.0  0.913225590868328  0.8481708161432402  0.015135408720516753  1.0000
  C   C383      1.0  0.8630852141071372  0.8180100672925068  0.9932796854522831  1.0000
  C   C384      1.0  0.9626401750659482  0.8527034947445699  0.9785346964236767  1.0000
  H   H1017     1.0  0.8812213886607925  0.9011598352354622  0.06299904398612394  1.0000
  H   H1018     1.0  0.9273166651045988  0.8232808245864085  0.047915958373644665  1.0000
  H   H1019     1.0  0.8738763956873922  0.7776920106986805  0.992652295640676  1.0000
  H   H1020     1.0  0.8268938622366963  0.8271978309053564  0.019956048515140896  1.0000
  H   H1021     1.0  0.8538972230543773  0.8289009033394767  0.9504442579258783  1.0000
  H   H1022     1.0  0.9673737546800797  0.81664023766781  0.9512782180479116  1.0000
  H   H1023     1.0  0.9661200367081951  0.8896269343335815  0.9574428118035906  1.0000
  H   H1024     1.0  0.9932833450404225  0.8503686717759468  0.008956379687733138  1.0000
