@<TRIPOS>MOLECULE
*****
 14 14 0 0 0
SMALL
GASTEIGER

@<TRIPOS>ATOM
      1 C          -1.8480   -0.0009    0.0407 C.ar    1  UNL1       -0.0616
      2 C          -1.1494    1.2030    0.0179 C.ar    1  UNL1       -0.0600
      3 C           0.2489    1.1997   -0.0197 C.ar    1  UNL1       -0.0410
      4 C           0.9611   -0.0027    0.0020 C.ar    1  UNL1        0.0245
      5 C           0.2476   -1.2034   -0.0215 C.ar    1  UNL1       -0.0410
      6 C          -1.1501   -1.2064    0.0164 C.ar    1  UNL1       -0.0600
      7 N           2.3485   -0.0028   -0.1878 N.pl3   1  UNL1       -0.3580
      8 H          -2.9346   -0.0007    0.0559 H       1  UNL1        0.0618
      9 H          -1.6885    2.1462    0.0123 H       1  UNL1        0.0618
     10 H           0.7769    2.1477   -0.0731 H       1  UNL1        0.0636
     11 H           0.7747   -2.1516   -0.0757 H       1  UNL1        0.0636
     12 H          -1.6903   -2.1485    0.0087 H       1  UNL1        0.0618
     13 H           2.8067   -0.8467    0.1395 H       1  UNL1        0.1423
     14 H           2.8073    0.8399    0.1422 H       1  UNL1        0.1423
@<TRIPOS>BOND
     1     1     2   ar
     2     2     3   ar
     3     3     4   ar
     4     4     5   ar
     5     5     6   ar
     6     1     6   ar
     7     4     7    1
     8     1     8    1
     9     2     9    1
    10     3    10    1
    11     5    11    1
    12     6    12    1
    13     7    13    1
    14     7    14    1
