@<TRIPOS>MOLECULE
*****
   14    14     1     0     0
SMALL
bcc


@<TRIPOS>ATOM
      1 C           -1.8480    -0.0010     0.0410 ca         1 UNL      -0.173000
      2 C1          -1.1490     1.2030     0.0180 ca         1 UNL      -0.094000
      3 C2           0.2490     1.2000    -0.0200 ca         1 UNL      -0.190000
      4 C3           0.9610    -0.0030     0.0020 ca         1 UNL       0.136600
      5 C4           0.2480    -1.2030    -0.0210 ca         1 UNL      -0.190000
      6 C5          -1.1500    -1.2060     0.0160 ca         1 UNL      -0.094000
      7 N            2.3490    -0.0030    -0.1880 nv         1 UNL      -0.818200
      8 H           -2.9350    -0.0010     0.0560 ha         1 UNL       0.131000
      9 H1          -1.6880     2.1460     0.0120 ha         1 UNL       0.129000
     10 H2           0.7770     2.1480    -0.0730 ha         1 UNL       0.130000
     11 H3           0.7750    -2.1520    -0.0760 ha         1 UNL       0.130000
     12 H4          -1.6900    -2.1480     0.0090 ha         1 UNL       0.129000
     13 H5           2.8070    -0.8470     0.1400 hn         1 UNL       0.386800
     14 H6           2.8070     0.8400     0.1420 hn         1 UNL       0.386800
@<TRIPOS>BOND
     1     1     2 ar  
     2     2     3 ar  
     3     3     4 ar  
     4     4     5 ar  
     5     5     6 ar  
     6     1     6 ar  
     7     4     7 1   
     8     1     8 1   
     9     2     9 1   
    10     3    10 1   
    11     5    11 1   
    12     6    12 1   
    13     7    13 1   
    14     7    14 1   
@<TRIPOS>SUBSTRUCTURE
     1 UNL         1 TEMP              0 ****  ****    0 ROOT
