@<TRIPOS>MOLECULE
*****
   17    16     1     0     0
SMALL
bcc


@<TRIPOS>ATOM
      1 C            0.6200     1.7660     1.3750 c3         1 UNL       0.108900
      2 C1           0.4550     1.3880    -0.0980 c3         1 UNL       0.088900
      3 O            1.0680     2.3190    -0.9890 os         1 UNL      -0.411600
      4 C2           2.4910     2.2770    -0.9590 c3         1 UNL       0.088900
      5 C3           3.0520     3.2040    -2.0320 c3         1 UNL       0.108900
      6 O1           4.4700     3.2620    -1.9310 oh         1 UNL      -0.590800
      7 O2          -0.1250     0.8910     2.2150 oh         1 UNL      -0.590800
      8 H            0.2760     2.7910     1.5460 h1         1 UNL       0.056450
      9 H1           1.6690     1.7240     1.6830 h1         1 UNL       0.056450
     10 H2           0.8310     0.3760    -0.2860 h1         1 UNL       0.043700
     11 H3          -0.6150     1.3600    -0.3370 h1         1 UNL       0.043700
     12 H4           2.8570     2.6070     0.0210 h1         1 UNL       0.043700
     13 H5           2.8510     1.2560    -1.1270 h1         1 UNL       0.043700
     14 H6           2.7870     2.8380    -3.0290 h1         1 UNL       0.056450
     15 H7           2.6330     4.2120    -1.9350 h1         1 UNL       0.056450
     16 H8           4.7050     4.1800    -1.7090 ho         1 UNL       0.397500
     17 H9           0.1660    -0.0180     2.0300 ho         1 UNL       0.397500
@<TRIPOS>BOND
     1     1     2 1   
     2     2     3 1   
     3     3     4 1   
     4     4     5 1   
     5     5     6 1   
     6     1     7 1   
     7     1     8 1   
     8     1     9 1   
     9     2    10 1   
    10     2    11 1   
    11     4    12 1   
    12     4    13 1   
    13     5    14 1   
    14     5    15 1   
    15     6    16 1   
    16     7    17 1   
@<TRIPOS>SUBSTRUCTURE
     1 UNL         1 TEMP              0 ****  ****    0 ROOT
