@<TRIPOS>MOLECULE
*****
    5     4     1     0     0
SMALL
bcc


@<TRIPOS>ATOM
      1 C            0.9400    -0.0180     0.0780 c3         1 UNL      -0.108800
      2 H            0.5760    -0.7660    -0.6310 hc         1 UNL       0.026700
      3 H1           0.5760    -0.2590     1.0790 hc         1 UNL       0.026700
      4 H2           0.5760     0.9690    -0.2150 hc         1 UNL       0.026700
      5 H3           2.0320    -0.0180     0.0780 hc         1 UNL       0.026700
@<TRIPOS>BOND
     1     1     2 1   
     2     1     3 1   
     3     1     4 1   
     4     1     5 1   
@<TRIPOS>SUBSTRUCTURE
     1 UNL         1 TEMP              0 ****  ****    0 ROOT
