@<TRIPOS>MOLECULE
*****
 5 4 0 0 0
SMALL
GASTEIGER

@<TRIPOS>ATOM
      1 C           0.9400   -0.0185    0.0778 C.3     1  UNL1       -0.0776
      2 H           0.5759   -0.7657   -0.6307 H       1  UNL1        0.0194
      3 H           0.5759   -0.2585    1.0792 H       1  UNL1        0.0194
      4 H           0.5759    0.9687   -0.2150 H       1  UNL1        0.0194
      5 H           2.0322   -0.0185    0.0778 H       1  UNL1        0.0194
@<TRIPOS>BOND
     1     1     2    1
     2     1     3    1
     3     1     4    1
     4     1     5    1
