@<TRIPOS>MOLECULE
*****
 152 151 0 0 0
SMALL
GASTEIGER

@<TRIPOS>ATOM
      1 H          -0.6456    1.3790    1.5157 H       1  UNL1        0.0240
      2 C           0.3831    1.2768    1.1499 C.3     1  UNL1       -0.0496
      3 C           1.3690    1.1067    2.3079 C.3     1  UNL1        0.0632
      4 C           1.0036   -0.2176    3.0299 C.3     1  UNL1       -0.0496
      5 C           2.8333    0.9684    1.8307 C.3     1  UNL1       -0.0222
      6 C           3.6070    2.0569    1.0296 C.3     1  UNL1        0.0669
      7 C           3.4360    3.4575    1.6555 C.3     1  UNL1       -0.0493
      8 C           5.1383    1.7338    1.1241 C.3     1  UNL1       -0.0219
      9 C           5.7855    0.4106    0.6311 C.3     1  UNL1        0.0670
     10 C           5.3236    0.0246   -0.7935 C.3     1  UNL1       -0.0493
     11 C           7.3127    0.6803    0.4881 C.3     1  UNL1       -0.0219
     12 C           8.2583    1.1155    1.6321 C.3     1  UNL1        0.0670
     13 C           8.0839    0.2597    2.9062 C.3     1  UNL1       -0.0493
     14 C           9.6935    0.7974    1.1189 C.3     1  UNL1       -0.0219
     15 C          10.3110    1.3691   -0.1835 C.3     1  UNL1        0.0670
     16 C          10.1728    2.9059   -0.2529 C.3     1  UNL1       -0.0493
     17 C          11.8381    1.0920   -0.0657 C.3     1  UNL1       -0.0219
     18 C          12.4615   -0.3235    0.0776 C.3     1  UNL1        0.0670
     19 C          11.9228   -1.3060   -0.9874 C.3     1  UNL1       -0.0493
     20 C          13.9751   -0.1414   -0.2450 C.3     1  UNL1       -0.0219
     21 C          14.9232    0.8152    0.5311 C.3     1  UNL1        0.0670
     22 C          14.8526    0.5194    2.0509 C.3     1  UNL1       -0.0493
     23 C          16.3880    0.4643    0.1032 C.3     1  UNL1       -0.0219
     24 C          16.9261    0.4705   -1.3664 C.3     1  UNL1        0.0670
     25 C          16.7201    1.8650   -2.0021 C.3     1  UNL1       -0.0493
     26 C          18.4892    0.2453   -1.3169 C.3     1  UNL1       -0.0219
     27 C          19.1383   -1.0348   -0.6824 C.3     1  UNL1        0.0667
     28 C          18.5715   -2.3163   -1.3303 C.3     1  UNL1       -0.0494
     29 C          20.6644   -1.0686   -1.0120 C.3     1  UNL1       -0.0248
     30 C          21.5760    0.1156   -0.6398 C.3     1  UNL1        0.0546
     31 C          21.6820    0.3234    0.8588 C.2     1  UNL1        0.3097
     32 O          21.3289    1.5929    1.1906 O.3     1  UNL1       -0.4677
     33 C          21.2405    1.8733    2.5924 C.3     1  UNL1        0.0817
     34 O          22.0344   -0.5535    1.6397 O.2     1  UNL1       -0.2506
     35 C          22.9854   -0.1926   -1.1596 C.3     1  UNL1       -0.0523
     36 H          21.2233    1.0368   -1.1182 H       1  UNL1        0.0411
     37 C          18.9813   -1.1064    0.8520 C.2     1  UNL1        0.3128
     38 O          19.0129   -2.3929    1.2958 O.3     1  UNL1       -0.4675
     39 C          18.9159   -2.5799    2.7104 C.3     1  UNL1        0.0817
     40 O          18.8919   -0.1278    1.5775 O.2     1  UNL1       -0.2502
     41 C          16.2794   -0.5951   -2.2831 C.2     1  UNL1        0.3128
     42 O          16.3831   -0.2819   -3.6084 O.3     1  UNL1       -0.4675
     43 C          15.8105   -1.2431   -4.5065 C.3     1  UNL1        0.0817
     44 O          15.7742   -1.6454   -1.8926 O.2     1  UNL1       -0.2502
     45 C          14.6733    2.3272    0.3055 C.2     1  UNL1        0.3128
     46 O          15.1520    3.0762    1.3417 O.3     1  UNL1       -0.4675
     47 C          15.0161    4.4954    1.2194 C.3     1  UNL1        0.0817
     48 O          14.1712    2.8133   -0.6988 O.2     1  UNL1       -0.2502
     49 C          12.3253   -1.0033    1.4657 C.2     1  UNL1        0.3128
     50 O          12.8801   -2.2515    1.4655 O.3     1  UNL1       -0.4675
     51 C          12.9785   -2.8798    2.7502 C.3     1  UNL1        0.0817
     52 O          11.8712   -0.4777    2.4734 O.2     1  UNL1       -0.2502
     53 C           9.8113    0.7622   -1.5225 C.2     1  UNL1        0.3128
     54 O          10.4074    1.3626   -2.5937 O.3     1  UNL1       -0.4675
     55 C          10.1878    0.7280   -3.8614 C.3     1  UNL1        0.0817
     56 O           9.0689   -0.2077   -1.6330 O.2     1  UNL1       -0.2502
     57 C           8.1929    2.6090    2.0325 C.2     1  UNL1        0.3128
     58 O           9.0919    2.8964    3.0204 O.3     1  UNL1       -0.4675
     59 C           9.2629    4.2863    3.3198 C.3     1  UNL1        0.0817
     60 O           7.5020    3.4583    1.4881 O.2     1  UNL1       -0.2502
     61 C           5.5953   -0.8151    1.5568 C.2     1  UNL1        0.3128
     62 O           6.1947   -1.9264    1.0324 O.3     1  UNL1       -0.4675
     63 C           6.2703   -3.0616    1.9006 C.3     1  UNL1        0.0817
     64 O           5.0687   -0.7951    2.6600 O.2     1  UNL1       -0.2502
     65 C           3.2029    2.1402   -0.4564 C.2     1  UNL1        0.3128
     66 O           3.9080    3.1186   -1.0986 O.3     1  UNL1       -0.4675
     67 C           3.7374    3.1786   -2.5168 C.3     1  UNL1        0.0817
     68 O           2.4197    1.3877   -1.0155 O.2     1  UNL1       -0.2502
     69 C           1.1886    2.2269    3.3411 C.2     1  UNL1        0.3126
     70 O           2.0841    2.0991    4.3611 O.3     1  UNL1       -0.4676
     71 C           2.0266    3.1158    5.3627 C.3     1  UNL1        0.0817
     72 O           0.3514    3.1145    3.2648 O.2     1  UNL1       -0.2503
     73 H           0.4022    0.4048    0.4834 H       1  UNL1        0.0240
     74 H           0.5950    2.1725    0.5616 H       1  UNL1        0.0240
     75 H           1.1299   -1.0809    2.3640 H       1  UNL1        0.0240
     76 H           1.6403   -0.3912    3.9067 H       1  UNL1        0.0240
     77 H          -0.0342   -0.2105    3.3797 H       1  UNL1        0.0240
     78 H           3.4198    0.8137    2.7452 H       1  UNL1        0.0286
     79 H           2.9114    0.0393    1.2634 H       1  UNL1        0.0286
     80 H           3.7289    3.4573    2.7114 H       1  UNL1        0.0240
     81 H           4.0750    4.1988    1.1616 H       1  UNL1        0.0240
     82 H           2.4112    3.8259    1.5665 H       1  UNL1        0.0240
     83 H           5.6252    2.5349    0.5569 H       1  UNL1        0.0286
     84 H           5.4365    1.8736    2.1725 H       1  UNL1        0.0286
     85 H           5.4828    0.8521   -1.4939 H       1  UNL1        0.0240
     86 H           5.8989   -0.8205   -1.1923 H       1  UNL1        0.0240
     87 H           4.2770   -0.2827   -0.8233 H       1  UNL1        0.0240
     88 H           7.7147   -0.2710    0.1279 H       1  UNL1        0.0286
     89 H           7.4344    1.4084   -0.3249 H       1  UNL1        0.0286
     90 H           8.1683   -0.8072    2.6738 H       1  UNL1        0.0240
     91 H           8.8679    0.4684    3.6449 H       1  UNL1        0.0240
     92 H           7.1324    0.4473    3.4071 H       1  UNL1        0.0240
     93 H          10.3558    1.1115    1.9327 H       1  UNL1        0.0286
     94 H           9.7643   -0.2962    1.0486 H       1  UNL1        0.0286
     95 H          10.5444    3.3738    0.6649 H       1  UNL1        0.0240
     96 H          10.7659    3.3331   -1.0712 H       1  UNL1        0.0240
     97 H           9.1414    3.2238   -0.4253 H       1  UNL1        0.0240
     98 H          12.2715    1.5293   -0.9716 H       1  UNL1        0.0286
     99 H          12.1992    1.6903    0.7813 H       1  UNL1        0.0286
    100 H          12.0017   -0.8774   -1.9915 H       1  UNL1        0.0240
    101 H          12.4990   -2.2388   -1.0103 H       1  UNL1        0.0240
    102 H          10.8880   -1.5978   -0.7956 H       1  UNL1        0.0240
    103 H          14.4073   -1.1432   -0.1524 H       1  UNL1        0.0286
    104 H          14.0263    0.1445   -1.3037 H       1  UNL1        0.0286
    105 H          14.9750   -0.5500    2.2511 H       1  UNL1        0.0240
    106 H          15.6527    1.0270    2.6028 H       1  UNL1        0.0240
    107 H          13.9146    0.8651    2.4925 H       1  UNL1        0.0240
    108 H          17.0322    1.1467    0.6729 H       1  UNL1        0.0286
    109 H          16.5610   -0.5471    0.4906 H       1  UNL1        0.0286
    110 H          17.0391    2.6634   -1.3231 H       1  UNL1        0.0240
    111 H          17.3075    1.9783   -2.9212 H       1  UNL1        0.0240
    112 H          15.6809    2.0313   -2.2940 H       1  UNL1        0.0240
    113 H          18.8518    0.3079   -2.3526 H       1  UNL1        0.0286
    114 H          18.9123    1.1199   -0.8030 H       1  UNL1        0.0286
    115 H          18.4958   -2.2093   -2.4181 H       1  UNL1        0.0240
    116 H          19.2201   -3.1811   -1.1466 H       1  UNL1        0.0240
    117 H          17.6007   -2.5884   -0.9136 H       1  UNL1        0.0240
    118 H          21.0888   -1.9749   -0.5579 H       1  UNL1        0.0283
    119 H          20.7549   -1.2057   -2.0996 H       1  UNL1        0.0283
    120 H          20.2596    2.3155    2.7879 H       1  UNL1        0.0661
    121 H          21.3514    0.9906    3.2297 H       1  UNL1        0.0661
    122 H          22.0105    2.6047    2.8530 H       1  UNL1        0.0661
    123 H          22.9868   -0.2819   -2.2510 H       1  UNL1        0.0238
    124 H          23.7000    0.5842   -0.8736 H       1  UNL1        0.0238
    125 H          23.3521   -1.1429   -0.7499 H       1  UNL1        0.0238
    126 H          19.9197   -2.5832    3.1438 H       1  UNL1        0.0661
    127 H          18.2903   -1.8249    3.1967 H       1  UNL1        0.0661
    128 H          18.4593   -3.5588    2.8846 H       1  UNL1        0.0661
    129 H          16.5356   -2.0394   -4.6994 H       1  UNL1        0.0661
    130 H          14.8734   -1.6661   -4.1283 H       1  UNL1        0.0661
    131 H          15.5902   -0.7363   -5.4508 H       1  UNL1        0.0661
    132 H          15.8895    4.8957    0.6976 H       1  UNL1        0.0661
    133 H          14.0945    4.7909    0.7071 H       1  UNL1        0.0661
    134 H          14.9919    4.9181    2.2281 H       1  UNL1        0.0661
    135 H          13.7804   -2.4129    3.3313 H       1  UNL1        0.0661
    136 H          12.0325   -2.8363    3.2999 H       1  UNL1        0.0661
    137 H          13.2380   -3.9303    2.5942 H       1  UNL1        0.0661
    138 H          10.8264   -0.1569   -3.9466 H       1  UNL1        0.0661
    139 H           9.1386    0.4575   -4.0121 H       1  UNL1        0.0661
    140 H          10.4783    1.4323   -4.6463 H       1  UNL1        0.0661
    141 H           9.8546    4.7651    2.5330 H       1  UNL1        0.0661
    142 H           8.3047    4.7993    3.4445 H       1  UNL1        0.0661
    143 H           9.8205    4.3632    4.2576 H       1  UNL1        0.0661
    144 H           6.9976   -2.8767    2.6982 H       1  UNL1        0.0661
    145 H           5.2931   -3.3124    2.3219 H       1  UNL1        0.0661
    146 H           6.6247   -3.9123    1.3117 H       1  UNL1        0.0661
    147 H           4.1382    2.2766   -2.9889 H       1  UNL1        0.0661
    148 H           2.6854    3.3204   -2.7810 H       1  UNL1        0.0661
    149 H           4.3067    4.0378   -2.8860 H       1  UNL1        0.0661
    150 H           1.9424    4.1143    4.9236 H       1  UNL1        0.0661
    151 H           1.1933    2.9178    6.0431 H       1  UNL1        0.0661
    152 H           2.9593    3.0739    5.9335 H       1  UNL1        0.0661
@<TRIPOS>BOND
     1     1     2    1
     2     2     3    1
     3     3     4    1
     4     3     5    1
     5     5     6    1
     6     6     7    1
     7     6     8    1
     8     8     9    1
     9     9    10    1
    10     9    11    1
    11    11    12    1
    12    12    13    1
    13    12    14    1
    14    14    15    1
    15    15    16    1
    16    15    17    1
    17    17    18    1
    18    18    19    1
    19    18    20    1
    20    20    21    1
    21    21    22    1
    22    21    23    1
    23    23    24    1
    24    24    25    1
    25    24    26    1
    26    26    27    1
    27    27    28    1
    28    27    29    1
    29    29    30    1
    30    30    31    1
    31    31    32    1
    32    32    33    1
    33    31    34    2
    34    30    35    1
    35    30    36    1
    36    27    37    1
    37    37    38    1
    38    38    39    1
    39    37    40    2
    40    24    41    1
    41    41    42    1
    42    42    43    1
    43    41    44    2
    44    21    45    1
    45    45    46    1
    46    46    47    1
    47    45    48    2
    48    18    49    1
    49    49    50    1
    50    50    51    1
    51    49    52    2
    52    15    53    1
    53    53    54    1
    54    54    55    1
    55    53    56    2
    56    12    57    1
    57    57    58    1
    58    58    59    1
    59    57    60    2
    60     9    61    1
    61    61    62    1
    62    62    63    1
    63    61    64    2
    64     6    65    1
    65    65    66    1
    66    66    67    1
    67    65    68    2
    68     3    69    1
    69    69    70    1
    70    70    71    1
    71    69    72    2
    72     2    73    1
    73     2    74    1
    74     4    75    1
    75     4    76    1
    76     4    77    1
    77     5    78    1
    78     5    79    1
    79     7    80    1
    80     7    81    1
    81     7    82    1
    82     8    83    1
    83     8    84    1
    84    10    85    1
    85    10    86    1
    86    10    87    1
    87    11    88    1
    88    11    89    1
    89    13    90    1
    90    13    91    1
    91    13    92    1
    92    14    93    1
    93    14    94    1
    94    16    95    1
    95    16    96    1
    96    16    97    1
    97    17    98    1
    98    17    99    1
    99    19   100    1
   100    19   101    1
   101    19   102    1
   102    20   103    1
   103    20   104    1
   104    22   105    1
   105    22   106    1
   106    22   107    1
   107    23   108    1
   108    23   109    1
   109    25   110    1
   110    25   111    1
   111    25   112    1
   112    26   113    1
   113    26   114    1
   114    28   115    1
   115    28   116    1
   116    28   117    1
   117    29   118    1
   118    29   119    1
   119    33   120    1
   120    33   121    1
   121    33   122    1
   122    35   123    1
   123    35   124    1
   124    35   125    1
   125    39   126    1
   126    39   127    1
   127    39   128    1
   128    43   129    1
   129    43   130    1
   130    43   131    1
   131    47   132    1
   132    47   133    1
   133    47   134    1
   134    51   135    1
   135    51   136    1
   136    51   137    1
   137    55   138    1
   138    55   139    1
   139    55   140    1
   140    59   141    1
   141    59   142    1
   142    59   143    1
   143    63   144    1
   144    63   145    1
   145    63   146    1
   146    67   147    1
   147    67   148    1
   148    67   149    1
   149    71   150    1
   150    71   151    1
   151    71   152    1
