@<TRIPOS>MOLECULE
*****
  152   151     1     0     0
SMALL
bcc


@<TRIPOS>ATOM
      1 H           -0.6460     1.3790     1.5160 hc         1 UNL       0.050700
      2 C            0.3830     1.2770     1.1500 c3         1 UNL      -0.092100
      3 C1           1.3690     1.1070     2.3080 c3         1 UNL      -0.077000
      4 C2           1.0040    -0.2180     3.0300 c3         1 UNL      -0.092100
      5 C3           2.8330     0.9680     1.8310 c3         1 UNL      -0.079400
      6 C4           3.6070     2.0570     1.0300 c3         1 UNL      -0.069000
      7 C5           3.4360     3.4580     1.6550 c3         1 UNL      -0.105100
      8 C6           5.1380     1.7340     1.1240 c3         1 UNL      -0.083400
      9 C7           5.7850     0.4110     0.6310 c3         1 UNL      -0.070000
     10 C8           5.3240     0.0250    -0.7930 c3         1 UNL      -0.105100
     11 C9           7.3130     0.6800     0.4880 c3         1 UNL      -0.083400
     12 C10          8.2580     1.1150     1.6320 c3         1 UNL      -0.071000
     13 C11          8.0840     0.2600     2.9060 c3         1 UNL      -0.105100
     14 C12          9.6940     0.7970     1.1190 c3         1 UNL      -0.082400
     15 C13         10.3110     1.3690    -0.1830 c3         1 UNL      -0.071000
     16 C14         10.1730     2.9060    -0.2530 c3         1 UNL      -0.106100
     17 C15         11.8380     1.0920    -0.0660 c3         1 UNL      -0.083400
     18 C16         12.4610    -0.3240     0.0780 c3         1 UNL      -0.071000
     19 C17         11.9230    -1.3060    -0.9870 c3         1 UNL      -0.105100
     20 C18         13.9750    -0.1410    -0.2450 c3         1 UNL      -0.084400
     21 C19         14.9230     0.8150     0.5310 c3         1 UNL      -0.071000
     22 C20         14.8530     0.5190     2.0510 c3         1 UNL      -0.105100
     23 C21         16.3880     0.4640     0.1030 c3         1 UNL      -0.084400
     24 C22         16.9260     0.4700    -1.3660 c3         1 UNL      -0.072000
     25 C23         16.7200     1.8650    -2.0020 c3         1 UNL      -0.106100
     26 C24         18.4890     0.2450    -1.3170 c3         1 UNL      -0.079400
     27 C25         19.1380    -1.0350    -0.6820 c3         1 UNL      -0.083000
     28 C26         18.5720    -2.3160    -1.3300 c3         1 UNL      -0.102100
     29 C27         20.6640    -1.0690    -1.0120 c3         1 UNL      -0.075400
     30 C28         21.5760     0.1160    -0.6400 c3         1 UNL      -0.113700
     31 C29         21.6820     0.3230     0.8590 c          1 UNL       0.630100
     32 O           21.3290     1.5930     1.1910 os         1 UNL      -0.434900
     33 C30         21.2410     1.8730     2.5920 c3         1 UNL       0.121700
     34 O1          22.0340    -0.5530     1.6400 o          1 UNL      -0.543000
     35 C31         22.9850    -0.1930    -1.1600 c3         1 UNL      -0.093100
     36 H1          21.2230     1.0370    -1.1180 hc         1 UNL       0.084700
     37 C32         18.9810    -1.1060     0.8520 c          1 UNL       0.630100
     38 O2          19.0130    -2.3930     1.2960 os         1 UNL      -0.428900
     39 C33         18.9160    -2.5800     2.7100 c3         1 UNL       0.121700
     40 O3          18.8920    -0.1280     1.5770 o          1 UNL      -0.550000
     41 C34         16.2790    -0.5950    -2.2830 c          1 UNL       0.633100
     42 O4          16.3830    -0.2820    -3.6080 os         1 UNL      -0.441900
     43 C35         15.8100    -1.2430    -4.5060 c3         1 UNL       0.124700
     44 O5          15.7740    -1.6450    -1.8930 o          1 UNL      -0.547000
     45 C36         14.6730     2.3270     0.3050 c          1 UNL       0.633100
     46 O6          15.1520     3.0760     1.3420 os         1 UNL      -0.433900
     47 C37         15.0160     4.4950     1.2190 c3         1 UNL       0.124700
     48 O7          14.1710     2.8130    -0.6990 o          1 UNL      -0.553000
     49 C38         12.3250    -1.0030     1.4660 c          1 UNL       0.633100
     50 O8          12.8800    -2.2520     1.4660 os         1 UNL      -0.434900
     51 C39         12.9790    -2.8800     2.7500 c3         1 UNL       0.124700
     52 O9          11.8710    -0.4780     2.4730 o          1 UNL      -0.553000
     53 C40          9.8110     0.7620    -1.5220 c          1 UNL       0.634100
     54 O10         10.4070     1.3630    -2.5940 os         1 UNL      -0.434900
     55 C41         10.1880     0.7280    -3.8610 c3         1 UNL       0.124700
     56 O11          9.0690    -0.2080    -1.6330 o          1 UNL      -0.553000
     57 C42          8.1930     2.6090     2.0330 c          1 UNL       0.634100
     58 O12          9.0920     2.8960     3.0200 os         1 UNL      -0.434900
     59 C43          9.2630     4.2860     3.3200 c3         1 UNL       0.124700
     60 O13          7.5020     3.4580     1.4880 o          1 UNL      -0.553000
     61 C44          5.5950    -0.8150     1.5570 c          1 UNL       0.634100
     62 O14          6.1950    -1.9260     1.0320 os         1 UNL      -0.435900
     63 C45          6.2700    -3.0620     1.9010 c3         1 UNL       0.124700
     64 O15          5.0690    -0.7950     2.6600 o          1 UNL      -0.553000
     65 C46          3.2030     2.1400    -0.4560 c          1 UNL       0.635100
     66 O16          3.9080     3.1190    -1.0990 os         1 UNL      -0.435900
     67 C47          3.7370     3.1790    -2.5170 c3         1 UNL       0.124700
     68 O17          2.4200     1.3880    -1.0160 o          1 UNL      -0.554000
     69 C48          1.1890     2.2270     3.3410 c          1 UNL       0.632100
     70 O18          2.0840     2.0990     4.3610 os         1 UNL      -0.437900
     71 C49          2.0270     3.1160     5.3630 c3         1 UNL       0.124700
     72 O19          0.3510     3.1150     3.2650 o          1 UNL      -0.549000
     73 H2           0.4020     0.4050     0.4830 hc         1 UNL       0.050700
     74 H3           0.5950     2.1720     0.5620 hc         1 UNL       0.050700
     75 H4           1.1300    -1.0810     2.3640 hc         1 UNL       0.050700
     76 H5           1.6400    -0.3910     3.9070 hc         1 UNL       0.050700
     77 H6          -0.0340    -0.2100     3.3800 hc         1 UNL       0.050700
     78 H7           3.4200     0.8140     2.7450 hc         1 UNL       0.080700
     79 H8           2.9110     0.0390     1.2630 hc         1 UNL       0.080700
     80 H9           3.7290     3.4570     2.7110 hc         1 UNL       0.056700
     81 H10          4.0750     4.1990     1.1620 hc         1 UNL       0.056700
     82 H11          2.4110     3.8260     1.5670 hc         1 UNL       0.056700
     83 H12          5.6250     2.5350     0.5570 hc         1 UNL       0.081700
     84 H13          5.4360     1.8740     2.1720 hc         1 UNL       0.081700
     85 H14          5.4830     0.8520    -1.4940 hc         1 UNL       0.057700
     86 H15          5.8990    -0.8210    -1.1920 hc         1 UNL       0.057700
     87 H16          4.2770    -0.2830    -0.8230 hc         1 UNL       0.057700
     88 H17          7.7150    -0.2710     0.1280 hc         1 UNL       0.082200
     89 H18          7.4340     1.4080    -0.3250 hc         1 UNL       0.082200
     90 H19          8.1680    -0.8070     2.6740 hc         1 UNL       0.058033
     91 H20          8.8680     0.4680     3.6450 hc         1 UNL       0.058033
     92 H21          7.1320     0.4470     3.4070 hc         1 UNL       0.058033
     93 H22         10.3560     1.1110     1.9330 hc         1 UNL       0.081700
     94 H23          9.7640    -0.2960     1.0490 hc         1 UNL       0.081700
     95 H24         10.5440     3.3740     0.6650 hc         1 UNL       0.057700
     96 H25         10.7660     3.3330    -1.0710 hc         1 UNL       0.057700
     97 H26          9.1410     3.2240    -0.4250 hc         1 UNL       0.057700
     98 H27         12.2710     1.5290    -0.9720 hc         1 UNL       0.082200
     99 H28         12.1990     1.6900     0.7810 hc         1 UNL       0.082200
    100 H29         12.0020    -0.8770    -1.9920 hc         1 UNL       0.058033
    101 H30         12.4990    -2.2390    -1.0100 hc         1 UNL       0.058033
    102 H31         10.8880    -1.5980    -0.7960 hc         1 UNL       0.058033
    103 H32         14.4070    -1.1430    -0.1520 hc         1 UNL       0.082700
    104 H33         14.0260     0.1440    -1.3040 hc         1 UNL       0.082700
    105 H34         14.9750    -0.5500     2.2510 hc         1 UNL       0.058367
    106 H35         15.6530     1.0270     2.6030 hc         1 UNL       0.058367
    107 H36         13.9150     0.8650     2.4930 hc         1 UNL       0.058367
    108 H37         17.0320     1.1470     0.6730 hc         1 UNL       0.082700
    109 H38         16.5610    -0.5470     0.4910 hc         1 UNL       0.082700
    110 H39         17.0390     2.6630    -1.3230 hc         1 UNL       0.058367
    111 H40         17.3080     1.9780    -2.9210 hc         1 UNL       0.058367
    112 H41         15.6810     2.0310    -2.2940 hc         1 UNL       0.058367
    113 H42         18.8520     0.3080    -2.3530 hc         1 UNL       0.075200
    114 H43         18.9120     1.1200    -0.8030 hc         1 UNL       0.075200
    115 H44         18.4960    -2.2090    -2.4180 hc         1 UNL       0.056700
    116 H45         19.2200    -3.1810    -1.1470 hc         1 UNL       0.056700
    117 H46         17.6010    -2.5880    -0.9140 hc         1 UNL       0.056700
    118 H47         21.0890    -1.9750    -0.5580 hc         1 UNL       0.071700
    119 H48         20.7550    -1.2060    -2.1000 hc         1 UNL       0.071700
    120 H49         20.2600     2.3160     2.7880 h1         1 UNL       0.055033
    121 H50         21.3510     0.9910     3.2300 h1         1 UNL       0.055033
    122 H51         22.0110     2.6050     2.8530 h1         1 UNL       0.055033
    123 H52         22.9870    -0.2820    -2.2510 hc         1 UNL       0.050700
    124 H53         23.7000     0.5840    -0.8740 hc         1 UNL       0.050700
    125 H54         23.3520    -1.1430    -0.7500 hc         1 UNL       0.050700
    126 H55         19.9200    -2.5830     3.1440 h1         1 UNL       0.056033
    127 H56         18.2900    -1.8250     3.1970 h1         1 UNL       0.056033
    128 H57         18.4590    -3.5590     2.8850 h1         1 UNL       0.056033
    129 H58         16.5360    -2.0390    -4.6990 h1         1 UNL       0.051700
    130 H59         14.8730    -1.6660    -4.1280 h1         1 UNL       0.051700
    131 H60         15.5900    -0.7360    -5.4510 h1         1 UNL       0.051700
    132 H61         15.8890     4.8960     0.6980 h1         1 UNL       0.051367
    133 H62         14.0950     4.7910     0.7070 h1         1 UNL       0.051367
    134 H63         14.9920     4.9180     2.2280 h1         1 UNL       0.051367
    135 H64         13.7800    -2.4130     3.3310 h1         1 UNL       0.050700
    136 H65         12.0330    -2.8360     3.3000 h1         1 UNL       0.050700
    137 H66         13.2380    -3.9300     2.5940 h1         1 UNL       0.050700
    138 H67         10.8260    -0.1570    -3.9470 h1         1 UNL       0.050700
    139 H68          9.1390     0.4580    -4.0120 h1         1 UNL       0.050700
    140 H69         10.4780     1.4320    -4.6460 h1         1 UNL       0.050700
    141 H70          9.8550     4.7650     2.5330 h1         1 UNL       0.050367
    142 H71          8.3050     4.7990     3.4450 h1         1 UNL       0.050367
    143 H72          9.8200     4.3630     4.2580 h1         1 UNL       0.050367
    144 H73          6.9980    -2.8770     2.6980 h1         1 UNL       0.050033
    145 H74          5.2930    -3.3120     2.3220 h1         1 UNL       0.050033
    146 H75          6.6250    -3.9120     1.3120 h1         1 UNL       0.050033
    147 H76          4.1380     2.2770    -2.9890 h1         1 UNL       0.049367
    148 H77          2.6850     3.3200    -2.7810 h1         1 UNL       0.049367
    149 H78          4.3070     4.0380    -2.8860 h1         1 UNL       0.049367
    150 H79          1.9420     4.1140     4.9240 h1         1 UNL       0.049033
    151 H80          1.1930     2.9180     6.0430 h1         1 UNL       0.049033
    152 H81          2.9590     3.0740     5.9340 h1         1 UNL       0.049033
@<TRIPOS>BOND
     1     1     2 1   
     2     2     3 1   
     3     3     4 1   
     4     3     5 1   
     5     5     6 1   
     6     6     7 1   
     7     6     8 1   
     8     8     9 1   
     9     9    10 1   
    10     9    11 1   
    11    11    12 1   
    12    12    13 1   
    13    12    14 1   
    14    14    15 1   
    15    15    16 1   
    16    15    17 1   
    17    17    18 1   
    18    18    19 1   
    19    18    20 1   
    20    20    21 1   
    21    21    22 1   
    22    21    23 1   
    23    23    24 1   
    24    24    25 1   
    25    24    26 1   
    26    26    27 1   
    27    27    28 1   
    28    27    29 1   
    29    29    30 1   
    30    30    31 1   
    31    31    32 1   
    32    32    33 1   
    33    31    34 2   
    34    30    35 1   
    35    30    36 1   
    36    27    37 1   
    37    37    38 1   
    38    38    39 1   
    39    37    40 2   
    40    24    41 1   
    41    41    42 1   
    42    42    43 1   
    43    41    44 2   
    44    21    45 1   
    45    45    46 1   
    46    46    47 1   
    47    45    48 2   
    48    18    49 1   
    49    49    50 1   
    50    50    51 1   
    51    49    52 2   
    52    15    53 1   
    53    53    54 1   
    54    54    55 1   
    55    53    56 2   
    56    12    57 1   
    57    57    58 1   
    58    58    59 1   
    59    57    60 2   
    60     9    61 1   
    61    61    62 1   
    62    62    63 1   
    63    61    64 2   
    64     6    65 1   
    65    65    66 1   
    66    66    67 1   
    67    65    68 2   
    68     3    69 1   
    69    69    70 1   
    70    70    71 1   
    71    69    72 2   
    72     2    73 1   
    73     2    74 1   
    74     4    75 1   
    75     4    76 1   
    76     4    77 1   
    77     5    78 1   
    78     5    79 1   
    79     7    80 1   
    80     7    81 1   
    81     7    82 1   
    82     8    83 1   
    83     8    84 1   
    84    10    85 1   
    85    10    86 1   
    86    10    87 1   
    87    11    88 1   
    88    11    89 1   
    89    13    90 1   
    90    13    91 1   
    91    13    92 1   
    92    14    93 1   
    93    14    94 1   
    94    16    95 1   
    95    16    96 1   
    96    16    97 1   
    97    17    98 1   
    98    17    99 1   
    99    19   100 1   
   100    19   101 1   
   101    19   102 1   
   102    20   103 1   
   103    20   104 1   
   104    22   105 1   
   105    22   106 1   
   106    22   107 1   
   107    23   108 1   
   108    23   109 1   
   109    25   110 1   
   110    25   111 1   
   111    25   112 1   
   112    26   113 1   
   113    26   114 1   
   114    28   115 1   
   115    28   116 1   
   116    28   117 1   
   117    29   118 1   
   118    29   119 1   
   119    33   120 1   
   120    33   121 1   
   121    33   122 1   
   122    35   123 1   
   123    35   124 1   
   124    35   125 1   
   125    39   126 1   
   126    39   127 1   
   127    39   128 1   
   128    43   129 1   
   129    43   130 1   
   130    43   131 1   
   131    47   132 1   
   132    47   133 1   
   133    47   134 1   
   134    51   135 1   
   135    51   136 1   
   136    51   137 1   
   137    55   138 1   
   138    55   139 1   
   139    55   140 1   
   140    59   141 1   
   141    59   142 1   
   142    59   143 1   
   143    63   144 1   
   144    63   145 1   
   145    63   146 1   
   146    67   147 1   
   147    67   148 1   
   148    67   149 1   
   149    71   150 1   
   150    71   151 1   
   151    71   152 1   
@<TRIPOS>SUBSTRUCTURE
     1 UNL         1 TEMP              0 ****  ****    0 ROOT
