@<TRIPOS>MOLECULE
*****
   45    44     1     0     0
SMALL
bcc


@<TRIPOS>ATOM
      1 C            3.8280    -4.9890    -4.8340 c3         1 UNL       0.115900
      2 C1           3.7140    -3.6810    -4.0470 c3         1 UNL       0.084400
      3 O            2.3720    -3.3850    -3.6480 os         1 UNL      -0.427600
      4 C2           1.9000    -4.1940    -2.5660 c3         1 UNL       0.095400
      5 C3           0.5510    -3.6470    -2.0870 c3         1 UNL       0.105400
      6 O1          -0.1200    -4.4390    -1.1060 os         1 UNL      -0.411600
      7 C4           0.5870    -4.7490     0.0910 c3         1 UNL       0.091400
      8 C5           1.0190    -3.5310     0.9190 c3         1 UNL       0.090400
      9 O2           1.6560    -3.8610     2.1590 os         1 UNL      -0.408600
     10 C6           2.9030    -4.5640     2.0910 c3         1 UNL       0.090400
     11 C7           4.0590    -3.7230     1.5320 c3         1 UNL       0.091400
     12 O3           5.2300    -4.4610     1.1840 os         1 UNL      -0.411600
     13 C8           6.0250    -5.0110     2.2360 c3         1 UNL       0.105400
     14 C9           6.7350    -3.9840     3.1280 c3         1 UNL       0.095400
     15 O4           7.6950    -4.5740     4.0240 os         1 UNL      -0.427600
     16 C10          8.9190    -4.9490     3.3760 c3         1 UNL       0.084400
     17 C11          9.9720    -5.3100     4.4300 c3         1 UNL       0.115900
     18 O5           9.5210    -6.4060     5.2220 oh         1 UNL      -0.597300
     19 O6           3.0100    -4.9860    -6.0020 oh         1 UNL      -0.597300
     20 H            3.5340    -5.8480    -4.2250 h1         1 UNL       0.050950
     21 H1           4.8630    -5.1380    -5.1580 h1         1 UNL       0.050950
     22 H2           4.3770    -3.6840    -3.1750 h1         1 UNL       0.050200
     23 H3           4.0220    -2.8530    -4.6960 h1         1 UNL       0.050200
     24 H4           1.7840    -5.2340    -2.8900 h1         1 UNL       0.047450
     25 H5           2.6250    -4.1700    -1.7460 h1         1 UNL       0.047450
     26 H6           0.6570    -2.6170    -1.7250 h1         1 UNL       0.059200
     27 H7          -0.1210    -3.5780    -2.9510 h1         1 UNL       0.059200
     28 H8          -0.0840    -5.3590     0.7030 h1         1 UNL       0.057450
     29 H9           1.4380    -5.3970    -0.1540 h1         1 UNL       0.057450
     30 H10          1.6550    -2.8550     0.3430 h1         1 UNL       0.057700
     31 H11          0.1240    -2.9460     1.1650 h1         1 UNL       0.057700
     32 H12          3.1500    -4.8460     3.1220 h1         1 UNL       0.057700
     33 H13          2.7850    -5.5080     1.5510 h1         1 UNL       0.057700
     34 H14          3.7340    -3.2570     0.5980 h1         1 UNL       0.057450
     35 H15          4.3040    -2.8960     2.2070 h1         1 UNL       0.057450
     36 H16          5.4400    -5.7160     2.8360 h1         1 UNL       0.059200
     37 H17          6.7840    -5.6150     1.7310 h1         1 UNL       0.059200
     38 H18          7.2080    -3.1910     2.5360 h1         1 UNL       0.047450
     39 H19          5.9890    -3.4890     3.7590 h1         1 UNL       0.047450
     40 H20          8.7320    -5.8230     2.7480 h1         1 UNL       0.050200
     41 H21          9.2960    -4.1240     2.7660 h1         1 UNL       0.050200
     42 H22         10.9080    -5.6010     3.9500 h1         1 UNL       0.050950
     43 H23         10.1640    -4.4690     5.1020 h1         1 UNL       0.050950
     44 H24          8.6520    -6.1370     5.5680 ho         1 UNL       0.412000
     45 H25          2.5980    -4.1050    -6.0770 ho         1 UNL       0.412000
@<TRIPOS>BOND
     1     1     2 1   
     2     2     3 1   
     3     3     4 1   
     4     4     5 1   
     5     5     6 1   
     6     6     7 1   
     7     7     8 1   
     8     8     9 1   
     9     9    10 1   
    10    10    11 1   
    11    11    12 1   
    12    12    13 1   
    13    13    14 1   
    14    14    15 1   
    15    15    16 1   
    16    16    17 1   
    17    17    18 1   
    18     1    19 1   
    19     1    20 1   
    20     1    21 1   
    21     2    22 1   
    22     2    23 1   
    23     4    24 1   
    24     4    25 1   
    25     5    26 1   
    26     5    27 1   
    27     7    28 1   
    28     7    29 1   
    29     8    30 1   
    30     8    31 1   
    31    10    32 1   
    32    10    33 1   
    33    11    34 1   
    34    11    35 1   
    35    13    36 1   
    36    13    37 1   
    37    14    38 1   
    38    14    39 1   
    39    16    40 1   
    40    16    41 1   
    41    17    42 1   
    42    17    43 1   
    43    18    44 1   
    44    19    45 1   
@<TRIPOS>SUBSTRUCTURE
     1 UNL         1 TEMP              0 ****  ****    0 ROOT
