@<TRIPOS>MOLECULE
*****
  103   102     1     0     0
SMALL
bcc


@<TRIPOS>ATOM
      1 O           -2.4910    -7.7820     0.0100 oh         1 UNL      -0.600800
      2 C           -2.0620    -8.9760     0.6560 c3         1 UNL       0.093400
      3 C1          -3.0330    -9.3990     1.7700 c3         1 UNL       0.102100
      4 C2          -2.6060   -10.8080     2.2250 c3         1 UNL      -0.093100
      5 O1          -3.0420    -8.5800     2.9520 os         1 UNL      -0.410600
      6 C3          -3.1560    -7.1410     2.8710 c3         1 UNL       0.093400
      7 C4          -4.5490    -6.5430     2.5220 c3         1 UNL       0.108100
      8 C5          -5.6070    -7.1240     3.4770 c3         1 UNL      -0.089100
      9 O2          -4.7540    -5.1160     2.6750 os         1 UNL      -0.411600
     10 C6          -3.7870    -4.1440     2.2880 c3         1 UNL       0.098400
     11 C7          -3.7590    -3.7310     0.7800 c3         1 UNL       0.102100
     12 C8          -5.0490    -3.1070     0.2620 c3         1 UNL      -0.121100
     13 O3          -2.5660    -2.9910     0.4950 os         1 UNL      -0.412600
     14 C9          -2.4830    -1.5670     0.6230 c3         1 UNL       0.120400
     15 C10         -1.5580    -1.0580     1.7690 c3         1 UNL       0.117100
     16 C11         -0.3610    -1.9950     1.9400 c3         1 UNL      -0.117100
     17 O4          -1.1170     0.2860     1.4390 os         1 UNL      -0.431600
     18 C12         -1.1170     1.2460     2.5160 c3         1 UNL       0.129400
     19 C13         -1.4780     2.6870     2.0090 c3         1 UNL       0.140100
     20 C14         -2.8030     2.6120     1.2320 c3         1 UNL      -0.116100
     21 O5          -1.6670     3.5620     3.1480 os         1 UNL      -0.430600
     22 C15         -0.9320     4.8130     3.2230 c3         1 UNL       0.107400
     23 C16         -0.3330     4.9110     4.6640 c3         1 UNL       0.136100
     24 C17          0.8280     3.9010     4.7330 c3         1 UNL      -0.092100
     25 O6           0.2360     6.1490     5.1120 os         1 UNL      -0.418600
     26 C18         -0.5600     7.2360     5.5940 c3         1 UNL       0.103400
     27 C19         -1.6390     7.0190     6.6860 c3         1 UNL       0.106100
     28 C20         -1.1280     6.4900     8.0290 c3         1 UNL      -0.117100
     29 O7          -2.4960     8.1760     6.8050 os         1 UNL      -0.415600
     30 C21         -2.2050     9.2550     7.6980 c3         1 UNL       0.101400
     31 C22         -1.3420    10.3990     7.0980 c3         1 UNL       0.103100
     32 C23         -1.9540    10.9130     5.7990 c3         1 UNL      -0.090100
     33 O8          -1.2450    11.5520     7.9480 os         1 UNL      -0.411600
     34 C24         -0.6070    11.4330     9.2140 c3         1 UNL       0.101400
     35 C25          0.8700    10.9910     9.1960 c3         1 UNL       0.104100
     36 C26          1.7300    11.8950     8.3070 c3         1 UNL      -0.093100
     37 O9           1.4690    11.0240    10.4990 os         1 UNL      -0.417600
     38 C27          0.9050    10.1760    11.4990 c3         1 UNL       0.126400
     39 C28          0.9300     8.6750    11.1750 c3         1 UNL       0.108100
     40 C29          2.3350     8.1490    10.8980 c3         1 UNL      -0.129100
     41 O10          0.3500     7.9600    12.2680 oh         1 UNL      -0.609800
     42 H            0.5840     7.0210    12.1760 ho         1 UNL       0.404000
     43 H1          -3.1400    -8.0380    -0.6670 ho         1 UNL       0.397000
     44 H2          -1.9850    -9.7570    -0.1120 h1         1 UNL       0.059700
     45 H3          -1.0580    -8.8120     1.0560 h1         1 UNL       0.059700
     46 H4          -4.0600    -9.4470     1.3830 h1         1 UNL       0.036700
     47 H5          -1.6160   -10.7740     2.6990 hc         1 UNL       0.048033
     48 H6          -3.2930   -11.2120     2.9720 hc         1 UNL       0.048033
     49 H7          -2.5570   -11.5120     1.3860 hc         1 UNL       0.048033
     50 H8          -2.9000    -6.7900     3.8800 h1         1 UNL       0.064200
     51 H9          -2.3690    -6.7420     2.2300 h1         1 UNL       0.064200
     52 H10         -4.8230    -6.8190     1.4990 h1         1 UNL       0.033700
     53 H11         -5.4070    -6.7990     4.5080 hc         1 UNL       0.048700
     54 H12         -6.6040    -6.7370     3.2330 hc         1 UNL       0.048700
     55 H13         -5.6450    -8.2160     3.4640 hc         1 UNL       0.048700
     56 H14         -4.0410    -3.2410     2.8600 h1         1 UNL       0.054200
     57 H15         -2.7920    -4.4330     2.6390 h1         1 UNL       0.054200
     58 H16         -3.6450    -4.6680     0.2430 h1         1 UNL       0.088700
     59 H17         -4.8790    -2.2560    -0.4100 hc         1 UNL       0.046367
     60 H18         -5.6140    -3.8510    -0.3270 hc         1 UNL       0.046367
     61 H19         -5.7310    -2.7850     1.0590 hc         1 UNL       0.046367
     62 H20         -2.0330    -1.2250    -0.3200 h1         1 UNL       0.058700
     63 H21         -3.4550    -1.0680     0.6740 h1         1 UNL       0.058700
     64 H22         -2.1340    -1.0470     2.7000 h1         1 UNL       0.043700
     65 H23          0.5130    -1.4900     2.3570 hc         1 UNL       0.047033
     66 H24         -0.6330    -2.8300     2.5970 hc         1 UNL       0.047033
     67 H25         -0.0560    -2.4320     0.9820 hc         1 UNL       0.047033
     68 H26         -1.8250     0.9610     3.3020 h1         1 UNL       0.041200
     69 H27         -0.1200     1.2650     2.9740 h1         1 UNL       0.041200
     70 H28         -0.6930     3.0550     1.3390 h1         1 UNL       0.053700
     71 H29         -3.6220     2.3420     1.9190 hc         1 UNL       0.046700
     72 H30         -3.0580     3.5720     0.7950 hc         1 UNL       0.046700
     73 H31         -2.7670     1.8470     0.4400 hc         1 UNL       0.046700
     74 H32         -0.1490     4.8770     2.4550 h1         1 UNL       0.036200
     75 H33         -1.6280     5.6400     3.0410 h1         1 UNL       0.036200
     76 H34         -1.0930     4.5910     5.3810 h1         1 UNL       0.054700
     77 H35          1.7780     4.3830     5.0110 hc         1 UNL       0.048033
     78 H36          0.6170     3.1400     5.4840 hc         1 UNL       0.048033
     79 H37          0.9980     3.3810     3.7850 hc         1 UNL       0.048033
     80 H38         -1.0000     7.7520     4.7360 h1         1 UNL       0.054700
     81 H39          0.1680     7.9440     6.0130 h1         1 UNL       0.054700
     82 H40         -2.3100     6.2440     6.3060 h1         1 UNL       0.064700
     83 H41         -1.8810     6.6160     8.8170 hc         1 UNL       0.050033
     84 H42         -0.8980     5.4210     7.9680 hc         1 UNL       0.050033
     85 H43         -0.2220     7.0070     8.3580 hc         1 UNL       0.050033
     86 H44         -3.1740     9.6910     7.9680 h1         1 UNL       0.056700
     87 H45         -1.7990     8.8990     8.6500 h1         1 UNL       0.056700
     88 H46         -0.3360    10.0290     6.8860 h1         1 UNL       0.037700
     89 H47         -1.8530    12.0050     5.7110 hc         1 UNL       0.048700
     90 H48         -1.4640    10.4600     4.9360 hc         1 UNL       0.048700
     91 H49         -3.0250    10.6940     5.7290 hc         1 UNL       0.048700
     92 H50         -0.6570    12.4280     9.6800 h1         1 UNL       0.055200
     93 H51         -1.2130    10.7920     9.8570 h1         1 UNL       0.055200
     94 H52          0.9560     9.9760     8.7960 h1         1 UNL       0.043700
     95 H53          2.7610    11.9530     8.6800 hc         1 UNL       0.049033
     96 H54          1.7630    11.5180     7.2810 hc         1 UNL       0.049033
     97 H55          1.3450    12.9190     8.2740 hc         1 UNL       0.049033
     98 H56          1.4740    10.3500    12.4200 h1         1 UNL       0.062200
     99 H57         -0.1140    10.5010    11.7350 h1         1 UNL       0.062200
    100 H58          0.3010     8.4830    10.3000 h1         1 UNL       0.043700
    101 H59          2.7990     7.7420    11.8020 hc         1 UNL       0.046367
    102 H60          2.2780     7.3240    10.1780 hc         1 UNL       0.046367
    103 H61          2.9940     8.9090    10.4690 hc         1 UNL       0.046367
@<TRIPOS>BOND
     1     1     2 1   
     2     2     3 1   
     3     3     4 1   
     4     3     5 1   
     5     5     6 1   
     6     6     7 1   
     7     7     8 1   
     8     7     9 1   
     9     9    10 1   
    10    10    11 1   
    11    11    12 1   
    12    11    13 1   
    13    13    14 1   
    14    14    15 1   
    15    15    16 1   
    16    15    17 1   
    17    17    18 1   
    18    18    19 1   
    19    19    20 1   
    20    19    21 1   
    21    21    22 1   
    22    22    23 1   
    23    23    24 1   
    24    23    25 1   
    25    25    26 1   
    26    26    27 1   
    27    27    28 1   
    28    27    29 1   
    29    29    30 1   
    30    30    31 1   
    31    31    32 1   
    32    31    33 1   
    33    33    34 1   
    34    34    35 1   
    35    35    36 1   
    36    35    37 1   
    37    37    38 1   
    38    38    39 1   
    39    39    40 1   
    40    39    41 1   
    41    41    42 1   
    42     1    43 1   
    43     2    44 1   
    44     2    45 1   
    45     3    46 1   
    46     4    47 1   
    47     4    48 1   
    48     4    49 1   
    49     6    50 1   
    50     6    51 1   
    51     7    52 1   
    52     8    53 1   
    53     8    54 1   
    54     8    55 1   
    55    10    56 1   
    56    10    57 1   
    57    11    58 1   
    58    12    59 1   
    59    12    60 1   
    60    12    61 1   
    61    14    62 1   
    62    14    63 1   
    63    15    64 1   
    64    16    65 1   
    65    16    66 1   
    66    16    67 1   
    67    18    68 1   
    68    18    69 1   
    69    19    70 1   
    70    20    71 1   
    71    20    72 1   
    72    20    73 1   
    73    22    74 1   
    74    22    75 1   
    75    23    76 1   
    76    24    77 1   
    77    24    78 1   
    78    24    79 1   
    79    26    80 1   
    80    26    81 1   
    81    27    82 1   
    82    28    83 1   
    83    28    84 1   
    84    28    85 1   
    85    30    86 1   
    86    30    87 1   
    87    31    88 1   
    88    32    89 1   
    89    32    90 1   
    90    32    91 1   
    91    34    92 1   
    92    34    93 1   
    93    35    94 1   
    94    36    95 1   
    95    36    96 1   
    96    36    97 1   
    97    38    98 1   
    98    38    99 1   
    99    39   100 1   
   100    40   101 1   
   101    40   102 1   
   102    40   103 1   
@<TRIPOS>SUBSTRUCTURE
     1 UNL         1 TEMP              0 ****  ****    0 ROOT
