@<TRIPOS>MOLECULE
*****
   10     9     1     0     0
SMALL
bcc


@<TRIPOS>ATOM
      1 C            0.9910    -0.0810    -0.1000 c3         1 UNL      -0.204100
      2 C1           0.4700    -1.4900    -0.0120 c          1 UNL       0.563100
      3 O           -0.2370    -1.8580     0.9250 o          1 UNL      -0.531100
      4 C2           0.8550    -2.4290    -1.1240 c3         1 UNL      -0.204100
      5 H            0.6420     0.4930     0.7630 hc         1 UNL       0.063033
      6 H1           0.6200     0.3920    -1.0120 hc         1 UNL       0.063033
      7 H2           2.0840    -0.0920    -0.0970 hc         1 UNL       0.063033
      8 H3           0.4790    -2.0460    -2.0750 hc         1 UNL       0.063033
      9 H4           1.9430    -2.5300    -1.1600 hc         1 UNL       0.063033
     10 H5           0.4160    -3.4140    -0.9410 hc         1 UNL       0.063033
@<TRIPOS>BOND
     1     1     2 1   
     2     2     3 2   
     3     2     4 1   
     4     1     5 1   
     5     1     6 1   
     6     1     7 1   
     7     4     8 1   
     8     4     9 1   
     9     4    10 1   
@<TRIPOS>SUBSTRUCTURE
     1 UNL         1 TEMP              0 ****  ****    0 ROOT
