@<TRIPOS>MOLECULE
*****
 87 86 0 0 0
SMALL
GASTEIGER

@<TRIPOS>ATOM
      1 C           3.0528    6.0367   -0.9838 C.3     1  UNL1        0.0676
      2 C           3.8751    4.7593   -1.1804 C.3     1  UNL1        0.0708
      3 O           4.3150    4.1388    0.0292 O.3     1  UNL1       -0.3752
      4 C           3.3022    3.7437    0.9519 C.3     1  UNL1        0.0711
      5 C           2.3878    2.6247    0.4457 C.3     1  UNL1        0.0711
      6 O           1.5071    2.0817    1.4321 O.3     1  UNL1       -0.3752
      7 C           0.6296    2.9909    2.0954 C.3     1  UNL1        0.0711
      8 C          -0.3579    3.7146    1.1760 C.3     1  UNL1        0.0711
      9 O          -1.2852    4.5616    1.8582 O.3     1  UNL1       -0.3752
     10 C          -0.7432    5.6370    2.6278 C.3     1  UNL1        0.0711
     11 C           0.1037    6.6296    1.8265 C.3     1  UNL1        0.0711
     12 O           0.5254    7.7843    2.5504 O.3     1  UNL1       -0.3752
     13 C           1.3507    7.5791    3.6966 C.3     1  UNL1        0.0711
     14 C           2.6845    6.8706    3.4380 C.3     1  UNL1        0.0711
     15 O           3.5214    6.7606    4.5949 O.3     1  UNL1       -0.3752
     16 C           3.0312    5.9744    5.6874 C.3     1  UNL1        0.0711
     17 C           2.8902    4.4842    5.3665 C.3     1  UNL1        0.0711
     18 O           2.3709    3.6374    6.3889 O.3     1  UNL1       -0.3752
     19 C           1.2055    4.0064    7.1205 C.3     1  UNL1        0.0711
     20 C          -0.0668    4.3058    6.3193 C.3     1  UNL1        0.0711
     21 O          -1.2750    4.2775    7.0879 O.3     1  UNL1       -0.3752
     22 C          -1.4036    5.1745    8.1942 C.3     1  UNL1        0.0711
     23 C          -1.3279    6.6612    7.8235 C.3     1  UNL1        0.0711
     24 O          -1.7070    7.5742    8.8559 O.3     1  UNL1       -0.3752
     25 C          -1.0339    7.4767   10.1073 C.3     1  UNL1        0.0711
     26 C           0.4721    7.7540   10.0494 C.3     1  UNL1        0.0711
     27 O           1.1148    7.7875   11.3276 O.3     1  UNL1       -0.3752
     28 C           1.0391    6.6075   12.1301 C.3     1  UNL1        0.0711
     29 C           1.6853    5.3727   11.4920 C.3     1  UNL1        0.0711
     30 O           1.7221    4.2211   12.3357 O.3     1  UNL1       -0.3752
     31 C           0.4709    3.7010   12.7900 C.3     1  UNL1        0.0711
     32 C          -0.4974    3.3183   11.6664 C.3     1  UNL1        0.0711
     33 O          -1.6706    2.6210   12.0824 O.3     1  UNL1       -0.3752
     34 C          -2.5124    3.2739   13.0382 C.3     1  UNL1        0.0708
     35 C          -3.0831    4.6009   12.5376 C.3     1  UNL1        0.0676
     36 O          -3.7990    4.4231   11.3201 O.3     1  UNL1       -0.3927
     37 O           3.6885    6.9514   -0.0986 O.3     1  UNL1       -0.3927
     38 H           2.0701    5.8059   -0.5675 H       1  UNL1        0.0580
     39 H           2.8927    6.5368   -1.9441 H       1  UNL1        0.0580
     40 H           3.3316    4.0380   -1.7966 H       1  UNL1        0.0583
     41 H           4.7901    5.0216   -1.7238 H       1  UNL1        0.0583
     42 H           3.8093    3.4052    1.8625 H       1  UNL1        0.0583
     43 H           2.7204    4.6166    1.2469 H       1  UNL1        0.0583
     44 H           1.8033    2.9490   -0.4205 H       1  UNL1        0.0583
     45 H           3.0121    1.7979    0.0881 H       1  UNL1        0.0583
     46 H           0.0642    2.4125    2.8358 H       1  UNL1        0.0583
     47 H           1.2219    3.6996    2.6754 H       1  UNL1        0.0583
     48 H           0.1571    4.2900    0.4021 H       1  UNL1        0.0583
     49 H          -0.9468    2.9630    0.6370 H       1  UNL1        0.0583
     50 H          -1.5904    6.1714    3.0730 H       1  UNL1        0.0583
     51 H          -0.1807    5.2273    3.4700 H       1  UNL1        0.0583
     52 H           0.9753    6.1431    1.3884 H       1  UNL1        0.0583
     53 H          -0.4917    6.9844    0.9767 H       1  UNL1        0.0583
     54 H           1.5676    8.5707    4.1096 H       1  UNL1        0.0583
     55 H           0.7658    7.0657    4.4634 H       1  UNL1        0.0583
     56 H           2.5330    5.8818    3.0052 H       1  UNL1        0.0583
     57 H           3.2459    7.4379    2.6856 H       1  UNL1        0.0583
     58 H           3.7569    6.0872    6.5012 H       1  UNL1        0.0583
     59 H           2.1019    6.4050    6.0638 H       1  UNL1        0.0583
     60 H           2.3215    4.3169    4.4566 H       1  UNL1        0.0583
     61 H           3.8995    4.1016    5.1442 H       1  UNL1        0.0583
     62 H           0.9924    3.1593    7.7831 H       1  UNL1        0.0583
     63 H           1.4527    4.8434    7.7814 H       1  UNL1        0.0583
     64 H           0.0069    5.2660    5.8066 H       1  UNL1        0.0583
     65 H          -0.1839    3.5509    5.5324 H       1  UNL1        0.0583
     66 H          -2.3700    4.9778    8.6619 H       1  UNL1        0.0583
     67 H          -0.6495    4.9255    8.9436 H       1  UNL1        0.0583
     68 H          -0.3328    6.9196    7.4593 H       1  UNL1        0.0583
     69 H          -2.0035    6.8434    6.9792 H       1  UNL1        0.0583
     70 H          -1.4957    8.2145   10.7745 H       1  UNL1        0.0583
     71 H          -1.2469    6.5059   10.5573 H       1  UNL1        0.0583
     72 H           0.9905    7.0451    9.4006 H       1  UNL1        0.0583
     73 H           0.6285    8.7392    9.5927 H       1  UNL1        0.0583
     74 H           1.5545    6.8258   13.0744 H       1  UNL1        0.0583
     75 H          -0.0033    6.4227   12.4052 H       1  UNL1        0.0583
     76 H           1.2093    5.1094   10.5424 H       1  UNL1        0.0583
     77 H           2.7227    5.6144   11.2370 H       1  UNL1        0.0583
     78 H           0.6939    2.8064   13.3824 H       1  UNL1        0.0583
     79 H           0.0179    4.4116   13.4879 H       1  UNL1        0.0583
     80 H          -0.7960    4.1968   11.0918 H       1  UNL1        0.0583
     81 H           0.0257    2.6676   10.9561 H       1  UNL1        0.0583
     82 H          -3.3428    2.5828   13.2209 H       1  UNL1        0.0583
     83 H          -1.9802    3.4014   13.9853 H       1  UNL1        0.0583
     84 H          -3.7651    5.0275   13.2790 H       1  UNL1        0.0580
     85 H          -2.2909    5.3293   12.3518 H       1  UNL1        0.0580
     86 H          -3.3920    3.6690   10.8524 H       1  UNL1        0.2095
     87 H           4.6470    6.9137   -0.2687 H       1  UNL1        0.2095
@<TRIPOS>BOND
     1     1     2    1
     2     2     3    1
     3     3     4    1
     4     4     5    1
     5     5     6    1
     6     6     7    1
     7     7     8    1
     8     8     9    1
     9     9    10    1
    10    10    11    1
    11    11    12    1
    12    12    13    1
    13    13    14    1
    14    14    15    1
    15    15    16    1
    16    16    17    1
    17    17    18    1
    18    18    19    1
    19    19    20    1
    20    20    21    1
    21    21    22    1
    22    22    23    1
    23    23    24    1
    24    24    25    1
    25    25    26    1
    26    26    27    1
    27    27    28    1
    28    28    29    1
    29    29    30    1
    30    30    31    1
    31    31    32    1
    32    32    33    1
    33    33    34    1
    34    34    35    1
    35    35    36    1
    36     1    37    1
    37     1    38    1
    38     1    39    1
    39     2    40    1
    40     2    41    1
    41     4    42    1
    42     4    43    1
    43     5    44    1
    44     5    45    1
    45     7    46    1
    46     7    47    1
    47     8    48    1
    48     8    49    1
    49    10    50    1
    50    10    51    1
    51    11    52    1
    52    11    53    1
    53    13    54    1
    54    13    55    1
    55    14    56    1
    56    14    57    1
    57    16    58    1
    58    16    59    1
    59    17    60    1
    60    17    61    1
    61    19    62    1
    62    19    63    1
    63    20    64    1
    64    20    65    1
    65    22    66    1
    66    22    67    1
    67    23    68    1
    68    23    69    1
    69    25    70    1
    70    25    71    1
    71    26    72    1
    72    26    73    1
    73    28    74    1
    74    28    75    1
    75    29    76    1
    76    29    77    1
    77    31    78    1
    78    31    79    1
    79    32    80    1
    80    32    81    1
    81    34    82    1
    82    34    83    1
    83    35    84    1
    84    35    85    1
    85    36    86    1
    86    37    87    1
