@<TRIPOS>MOLECULE
*****
   87    86     1     0     0
SMALL
bcc


@<TRIPOS>ATOM
      1 C            3.0530     6.0370    -0.9840 c3         1 UNL       0.095900
      2 C1           3.8750     4.7590    -1.1800 c3         1 UNL       0.080400
      3 O            4.3150     4.1390     0.0290 os         1 UNL      -0.410600
      4 C2           3.3020     3.7440     0.9520 c3         1 UNL       0.084400
      5 C3           2.3880     2.6250     0.4460 c3         1 UNL       0.090400
      6 O1           1.5070     2.0820     1.4320 os         1 UNL      -0.402100
      7 C4           0.6300     2.9910     2.0950 c3         1 UNL       0.090400
      8 C5          -0.3580     3.7150     1.1760 c3         1 UNL       0.089400
      9 O2          -1.2850     4.5620     1.8580 os         1 UNL      -0.401100
     10 C6          -0.7430     5.6370     2.6280 c3         1 UNL       0.088900
     11 C7           0.1040     6.6300     1.8270 c3         1 UNL       0.085400
     12 O3           0.5250     7.7840     2.5500 os         1 UNL      -0.398600
     13 C8           1.3510     7.5790     3.6970 c3         1 UNL       0.091400
     14 C9           2.6840     6.8710     3.4380 c3         1 UNL       0.082900
     15 O4           3.5210     6.7610     4.5950 os         1 UNL      -0.399600
     16 C10          3.0310     5.9740     5.6870 c3         1 UNL       0.088400
     17 C11          2.8900     4.4840     5.3670 c3         1 UNL       0.088900
     18 O5           2.3710     3.6370     6.3890 os         1 UNL      -0.400600
     19 C12          1.2060     4.0060     7.1200 c3         1 UNL       0.088900
     20 C13         -0.0670     4.3060     6.3190 c3         1 UNL       0.088400
     21 O6          -1.2750     4.2770     7.0880 os         1 UNL      -0.399600
     22 C14         -1.4040     5.1750     8.1940 c3         1 UNL       0.082900
     23 C15         -1.3280     6.6610     7.8240 c3         1 UNL       0.091400
     24 O7          -1.7070     7.5740     8.8560 os         1 UNL      -0.398600
     25 C16         -1.0340     7.4770    10.1070 c3         1 UNL       0.085400
     26 C17          0.4720     7.7540    10.0490 c3         1 UNL       0.088900
     27 O8           1.1150     7.7870    11.3280 os         1 UNL      -0.401100
     28 C18          1.0390     6.6070    12.1300 c3         1 UNL       0.089400
     29 C19          1.6850     5.3730    11.4920 c3         1 UNL       0.090400
     30 O9           1.7220     4.2210    12.3360 os         1 UNL      -0.402100
     31 C20          0.4710     3.7010    12.7900 c3         1 UNL       0.090400
     32 C21         -0.4970     3.3180    11.6660 c3         1 UNL       0.084400
     33 O10         -1.6710     2.6210    12.0820 os         1 UNL      -0.410600
     34 C22         -2.5120     3.2740    13.0380 c3         1 UNL       0.080400
     35 C23         -3.0830     4.6010    12.5380 c3         1 UNL       0.095900
     36 O11         -3.7990     4.4230    11.3200 oh         1 UNL      -0.603300
     37 O12          3.6880     6.9510    -0.0990 oh         1 UNL      -0.603300
     38 H            2.0700     5.8060    -0.5680 h1         1 UNL       0.047450
     39 H1           2.8930     6.5370    -1.9440 h1         1 UNL       0.047450
     40 H2           3.3320     4.0380    -1.7970 h1         1 UNL       0.060950
     41 H3           4.7900     5.0220    -1.7240 h1         1 UNL       0.060950
     42 H4           3.8090     3.4050     1.8630 h1         1 UNL       0.058700
     43 H5           2.7200     4.6170     1.2470 h1         1 UNL       0.058700
     44 H6           1.8030     2.9490    -0.4200 h1         1 UNL       0.055700
     45 H7           3.0120     1.7980     0.0880 h1         1 UNL       0.055700
     46 H8           0.0640     2.4130     2.8360 h1         1 UNL       0.055700
     47 H9           1.2220     3.7000     2.6750 h1         1 UNL       0.055700
     48 H10          0.1570     4.2900     0.4020 h1         1 UNL       0.055950
     49 H11         -0.9470     2.9630     0.6370 h1         1 UNL       0.055950
     50 H12         -1.5900     6.1710     3.0730 h1         1 UNL       0.054200
     51 H13         -0.1810     5.2270     3.4700 h1         1 UNL       0.054200
     52 H14          0.9750     6.1430     1.3880 h1         1 UNL       0.059700
     53 H15         -0.4920     6.9840     0.9770 h1         1 UNL       0.059700
     54 H16          1.5680     8.5710     4.1100 h1         1 UNL       0.051950
     55 H17          0.7660     7.0660     4.4630 h1         1 UNL       0.051950
     56 H18          2.5330     5.8820     3.0050 h1         1 UNL       0.062950
     57 H19          3.2460     7.4380     2.6860 h1         1 UNL       0.062950
     58 H20          3.7570     6.0870     6.5010 h1         1 UNL       0.054200
     59 H21          2.1020     6.4050     6.0640 h1         1 UNL       0.054200
     60 H22          2.3210     4.3170     4.4570 h1         1 UNL       0.054200
     61 H23          3.9000     4.1020     5.1440 h1         1 UNL       0.054200
     62 H24          0.9920     3.1590     7.7830 h1         1 UNL       0.054200
     63 H25          1.4530     4.8430     7.7810 h1         1 UNL       0.054200
     64 H26          0.0070     5.2660     5.8070 h1         1 UNL       0.054200
     65 H27         -0.1840     3.5510     5.5320 h1         1 UNL       0.054200
     66 H28         -2.3700     4.9780     8.6620 h1         1 UNL       0.062950
     67 H29         -0.6490     4.9260     8.9440 h1         1 UNL       0.062950
     68 H30         -0.3330     6.9200     7.4590 h1         1 UNL       0.051950
     69 H31         -2.0030     6.8430     6.9790 h1         1 UNL       0.051950
     70 H32         -1.4960     8.2140    10.7740 h1         1 UNL       0.059700
     71 H33         -1.2470     6.5060    10.5570 h1         1 UNL       0.059700
     72 H34          0.9910     7.0450     9.4010 h1         1 UNL       0.054200
     73 H35          0.6280     8.7390     9.5930 h1         1 UNL       0.054200
     74 H36          1.5540     6.8260    13.0740 h1         1 UNL       0.055950
     75 H37         -0.0030     6.4230    12.4050 h1         1 UNL       0.055950
     76 H38          1.2090     5.1090    10.5420 h1         1 UNL       0.055700
     77 H39          2.7230     5.6140    11.2370 h1         1 UNL       0.055700
     78 H40          0.6940     2.8060    13.3820 h1         1 UNL       0.055700
     79 H41          0.0180     4.4120    13.4880 h1         1 UNL       0.055700
     80 H42         -0.7960     4.1970    11.0920 h1         1 UNL       0.058700
     81 H43          0.0260     2.6680    10.9560 h1         1 UNL       0.058700
     82 H44         -3.3430     2.5830    13.2210 h1         1 UNL       0.060950
     83 H45         -1.9800     3.4010    13.9850 h1         1 UNL       0.060950
     84 H46         -3.7650     5.0270    13.2790 h1         1 UNL       0.047450
     85 H47         -2.2910     5.3290    12.3520 h1         1 UNL       0.047450
     86 H48         -3.3920     3.6690    10.8520 ho         1 UNL       0.415500
     87 H49          4.6470     6.9140    -0.2690 ho         1 UNL       0.415500
@<TRIPOS>BOND
     1     1     2 1   
     2     2     3 1   
     3     3     4 1   
     4     4     5 1   
     5     5     6 1   
     6     6     7 1   
     7     7     8 1   
     8     8     9 1   
     9     9    10 1   
    10    10    11 1   
    11    11    12 1   
    12    12    13 1   
    13    13    14 1   
    14    14    15 1   
    15    15    16 1   
    16    16    17 1   
    17    17    18 1   
    18    18    19 1   
    19    19    20 1   
    20    20    21 1   
    21    21    22 1   
    22    22    23 1   
    23    23    24 1   
    24    24    25 1   
    25    25    26 1   
    26    26    27 1   
    27    27    28 1   
    28    28    29 1   
    29    29    30 1   
    30    30    31 1   
    31    31    32 1   
    32    32    33 1   
    33    33    34 1   
    34    34    35 1   
    35    35    36 1   
    36     1    37 1   
    37     1    38 1   
    38     1    39 1   
    39     2    40 1   
    40     2    41 1   
    41     4    42 1   
    42     4    43 1   
    43     5    44 1   
    44     5    45 1   
    45     7    46 1   
    46     7    47 1   
    47     8    48 1   
    48     8    49 1   
    49    10    50 1   
    50    10    51 1   
    51    11    52 1   
    52    11    53 1   
    53    13    54 1   
    54    13    55 1   
    55    14    56 1   
    56    14    57 1   
    57    16    58 1   
    58    16    59 1   
    59    17    60 1   
    60    17    61 1   
    61    19    62 1   
    62    19    63 1   
    63    20    64 1   
    64    20    65 1   
    65    22    66 1   
    66    22    67 1   
    67    23    68 1   
    68    23    69 1   
    69    25    70 1   
    70    25    71 1   
    71    26    72 1   
    72    26    73 1   
    73    28    74 1   
    74    28    75 1   
    75    29    76 1   
    76    29    77 1   
    77    31    78 1   
    78    31    79 1   
    79    32    80 1   
    80    32    81 1   
    81    34    82 1   
    82    34    83 1   
    83    35    84 1   
    84    35    85 1   
    85    36    86 1   
    86    37    87 1   
@<TRIPOS>SUBSTRUCTURE
     1 UNL         1 TEMP              0 ****  ****    0 ROOT
