@<TRIPOS>MOLECULE
*****
   10     9     1     0     0
SMALL
bcc


@<TRIPOS>ATOM
      1 C            0.9220     0.0880    -0.0220 c3         1 UNL      -0.204100
      2 C1           0.4020     0.4860    -1.3760 c          1 UNL       0.563100
      3 O           -0.3050    -0.2700    -2.0410 o          1 UNL      -0.531100
      4 C2           0.7860     1.8510    -1.8810 c3         1 UNL      -0.204100
      5 H            0.5730    -0.9180     0.2250 hc         1 UNL       0.063033
      6 H1           0.5510     0.7850     0.7340 hc         1 UNL       0.063033
      7 H2           2.0150     0.0900    -0.0330 hc         1 UNL       0.063033
      8 H3           0.4100     2.6150    -1.1960 hc         1 UNL       0.063033
      9 H4           1.8740     1.9190    -1.9630 hc         1 UNL       0.063033
     10 H5           0.3470     2.0150    -2.8680 hc         1 UNL       0.063033
@<TRIPOS>BOND
     1     1     2 1   
     2     2     3 2   
     3     2     4 1   
     4     1     5 1   
     5     1     6 1   
     6     1     7 1   
     7     4     8 1   
     8     4     9 1   
     9     4    10 1   
@<TRIPOS>SUBSTRUCTURE
     1 UNL         1 TEMP              0 ****  ****    0 ROOT
