@<TRIPOS>MOLECULE
*****
   15    15     1     0     0
SMALL
bcc


@<TRIPOS>ATOM
      1 C            2.4870    -0.0060    -0.0130 c3         1 UNL      -0.053800
      2 C1           0.9880     0.0050    -0.0030 ca         1 UNL      -0.077300
      3 C2           0.2770     1.2110    -0.0020 ca         1 UNL      -0.131000
      4 C3          -1.1190     1.2080    -0.0010 ca         1 UNL      -0.126500
      5 C4          -1.8160     0.0010    -0.0010 ca         1 UNL      -0.135000
      6 C5          -1.1170    -1.2050    -0.0000 ca         1 UNL      -0.126500
      7 C6           0.2790    -1.2030    -0.0020 ca         1 UNL      -0.131000
      8 H            2.8670    -0.5350     0.8670 hc         1 UNL       0.043367
      9 H1           2.8540    -0.5020    -0.9170 hc         1 UNL       0.043367
     10 H2           2.8970     1.0090     0.0040 hc         1 UNL       0.043367
     11 H3           0.8050     2.1620    -0.0030 ha         1 UNL       0.130000
     12 H4          -1.6630     2.1490    -0.0010 ha         1 UNL       0.130000
     13 H5          -2.9020    -0.0000    -0.0020 ha         1 UNL       0.130000
     14 H6          -1.6580    -2.1470    -0.0000 ha         1 UNL       0.130000
     15 H7           0.8130    -2.1510    -0.0020 ha         1 UNL       0.130000
@<TRIPOS>BOND
     1     1     2 1   
     2     2     3 ar  
     3     3     4 ar  
     4     4     5 ar  
     5     5     6 ar  
     6     6     7 ar  
     7     2     7 ar  
     8     1     8 1   
     9     1     9 1   
    10     1    10 1   
    11     3    11 1   
    12     4    12 1   
    13     5    13 1   
    14     6    14 1   
    15     7    15 1   
@<TRIPOS>SUBSTRUCTURE
     1 UNL         1 TEMP              0 ****  ****    0 ROOT
