@<TRIPOS>MOLECULE
*****
   20    19     1     0     0
SMALL
bcc


@<TRIPOS>ATOM
      1 C            1.1420    -0.7300     2.3610 c3         1 UNL      -0.093100
      2 C1           0.5130     0.3120     1.4480 c3         1 UNL      -0.080400
      3 C2           0.9740     1.7270     1.8040 c3         1 UNL      -0.078400
      4 C3           0.4100     2.8080     0.8740 c3         1 UNL      -0.078400
      5 C4          -1.1160     2.9080     0.9050 c3         1 UNL      -0.080400
      6 C5          -1.6230     4.0270     0.0090 c3         1 UNL      -0.093100
      7 H            2.2330    -0.7250     2.2710 hc         1 UNL       0.032033
      8 H1           0.7830    -1.7290     2.0970 hc         1 UNL       0.032033
      9 H2           0.8810    -0.5410     3.4080 hc         1 UNL       0.032033
     10 H3           0.7740     0.0860     0.4080 hc         1 UNL       0.038700
     11 H4          -0.5750     0.2310     1.5380 hc         1 UNL       0.038700
     12 H5           0.6960     1.9570     2.8400 hc         1 UNL       0.038700
     13 H6           2.0690     1.7700     1.7550 hc         1 UNL       0.038700
     14 H7           0.8390     3.7730     1.1710 hc         1 UNL       0.038700
     15 H8           0.7470     2.6170    -0.1530 hc         1 UNL       0.038700
     16 H9          -1.5670     1.9700     0.5680 hc         1 UNL       0.038700
     17 H10         -1.4560     3.0840     1.9320 hc         1 UNL       0.038700
     18 H11         -1.3150     3.8680    -1.0290 hc         1 UNL       0.032033
     19 H12         -2.7170     4.0640     0.0350 hc         1 UNL       0.032033
     20 H13         -1.2420     4.9990     0.3370 hc         1 UNL       0.032033
@<TRIPOS>BOND
     1     1     2 1   
     2     2     3 1   
     3     3     4 1   
     4     4     5 1   
     5     5     6 1   
     6     1     7 1   
     7     1     8 1   
     8     1     9 1   
     9     2    10 1   
    10     2    11 1   
    11     3    12 1   
    12     3    13 1   
    13     4    14 1   
    14     4    15 1   
    15     5    16 1   
    16     5    17 1   
    17     6    18 1   
    18     6    19 1   
    19     6    20 1   
@<TRIPOS>SUBSTRUCTURE
     1 UNL         1 TEMP              0 ****  ****    0 ROOT
