@<TRIPOS>MOLECULE
*****
   47    46     1     0     0
SMALL
bcc


@<TRIPOS>ATOM
      1 H            0.1400    -1.0140     0.3350 hc         1 UNL       0.052033
      2 C            1.1930    -0.7070     0.2820 c3         1 UNL      -0.093600
      3 C1           2.1330    -1.9240     0.3510 c3         1 UNL      -0.080000
      4 C2           1.7840    -2.8150    -0.8670 c3         1 UNL      -0.093600
      5 C3           3.6600    -1.5400     0.2460 c3         1 UNL      -0.077400
      6 C4           4.3480    -0.6240     1.3170 c3         1 UNL      -0.079000
      7 C5           4.1040    -1.1870     2.7360 c3         1 UNL      -0.104100
      8 C6           5.9120    -0.5930     1.1590 c3         1 UNL      -0.074400
      9 C7           6.5820    -0.2030    -0.1730 c3         1 UNL      -0.112700
     10 C8           6.2790     1.2210    -0.6010 c          1 UNL       0.632100
     11 O            5.8090     1.2310    -1.8760 os         1 UNL      -0.433900
     12 C9           5.3890     2.5000    -2.3860 c3         1 UNL       0.123700
     13 O1           6.4610     2.2000     0.1100 o          1 UNL      -0.543000
     14 C10          8.1100    -0.2970    -0.0150 c3         1 UNL      -0.093100
     15 H1           6.2740    -0.9000    -0.9610 hc         1 UNL       0.085700
     16 C11          3.8320     0.8200     1.2340 c          1 UNL       0.633100
     17 O2           3.9250     1.4470     2.4380 os         1 UNL      -0.430900
     18 C12          3.4930     2.8060     2.4570 c3         1 UNL       0.123700
     19 O3           3.4270     1.3450     0.2040 o          1 UNL      -0.551000
     20 C13          1.8460    -2.8110     1.5770 c          1 UNL       0.632100
     21 O4           0.8110    -2.3450     2.3170 os         1 UNL      -0.433900
     22 C14          0.4610    -3.1180     3.4730 c3         1 UNL       0.123700
     23 O5           2.4830    -3.8250     1.8400 o          1 UNL      -0.552000
     24 H2           1.3130    -0.1640    -0.6610 hc         1 UNL       0.052033
     25 H3           1.3500    -0.0150     1.1120 hc         1 UNL       0.052033
     26 H4           1.9600    -2.2880    -1.8110 hc         1 UNL       0.052033
     27 H5           2.3840    -3.7320    -0.8790 hc         1 UNL       0.052033
     28 H6           0.7300    -3.1210    -0.8460 hc         1 UNL       0.052033
     29 H7           4.2270    -2.4820     0.2220 hc         1 UNL       0.074700
     30 H8           3.8130    -1.0830    -0.7430 hc         1 UNL       0.074700
     31 H9           4.3710    -2.2480     2.7880 hc         1 UNL       0.056700
     32 H10          4.7240    -0.6760     3.4830 hc         1 UNL       0.056700
     33 H11          3.0680    -1.0550     3.0560 hc         1 UNL       0.056700
     34 H12          6.3120     0.0760     1.9350 hc         1 UNL       0.071700
     35 H13          6.2830    -1.5960     1.4120 hc         1 UNL       0.071700
     36 H14          4.3870     2.3770    -2.8070 h1         1 UNL       0.053367
     37 H15          5.3520     3.2900    -1.6310 h1         1 UNL       0.053367
     38 H16          6.0700     2.7970    -3.1890 h1         1 UNL       0.053367
     39 H17          8.4190    -1.3160     0.2400 hc         1 UNL       0.050033
     40 H18          8.6270    -0.0020    -0.9340 hc         1 UNL       0.050033
     41 H19          8.4660     0.3680     0.7830 hc         1 UNL       0.050033
     42 H20          4.2310     3.4420     1.9610 h1         1 UNL       0.053700
     43 H21          2.5070     2.9160     1.9950 h1         1 UNL       0.053700
     44 H22          3.4140     3.1130     3.5040 h1         1 UNL       0.053700
     45 H23          0.5070    -4.1930     3.2770 h1         1 UNL       0.051033
     46 H24          1.1170    -2.8480     4.3060 h1         1 UNL       0.051033
     47 H25         -0.5680    -2.8680     3.7480 h1         1 UNL       0.051033
@<TRIPOS>BOND
     1     1     2 1   
     2     2     3 1   
     3     3     4 1   
     4     3     5 1   
     5     5     6 1   
     6     6     7 1   
     7     6     8 1   
     8     8     9 1   
     9     9    10 1   
    10    10    11 1   
    11    11    12 1   
    12    10    13 2   
    13     9    14 1   
    14     9    15 1   
    15     6    16 1   
    16    16    17 1   
    17    17    18 1   
    18    16    19 2   
    19     3    20 1   
    20    20    21 1   
    21    21    22 1   
    22    20    23 2   
    23     2    24 1   
    24     2    25 1   
    25     4    26 1   
    26     4    27 1   
    27     4    28 1   
    28     5    29 1   
    29     5    30 1   
    30     7    31 1   
    31     7    32 1   
    32     7    33 1   
    33     8    34 1   
    34     8    35 1   
    35    12    36 1   
    36    12    37 1   
    37    12    38 1   
    38    14    39 1   
    39    14    40 1   
    40    14    41 1   
    41    18    42 1   
    42    18    43 1   
    43    18    44 1   
    44    22    45 1   
    45    22    46 1   
    46    22    47 1   
@<TRIPOS>SUBSTRUCTURE
     1 UNL         1 TEMP              0 ****  ****    0 ROOT
