@<TRIPOS>MOLECULE
*****
   20    19     1     0     0
SMALL
bcc


@<TRIPOS>ATOM
      1 C            1.2250    -1.3780    -1.9030 c3         1 UNL      -0.093100
      2 C1           0.5960    -1.3070    -0.5190 c3         1 UNL      -0.080400
      3 C2           1.0570    -2.4630     0.3710 c3         1 UNL      -0.078400
      4 C3           0.4900    -2.4070     1.7940 c3         1 UNL      -0.078400
      5 C4          -1.0360    -2.4950     1.8520 c3         1 UNL      -0.080400
      6 C5          -1.5440    -2.4930     3.2860 c3         1 UNL      -0.093100
      7 H            2.3160    -1.3060    -1.8440 hc         1 UNL       0.032033
      8 H1           0.8620    -0.5530    -2.5250 hc         1 UNL       0.032033
      9 H2           0.9670    -2.3180    -2.4030 hc         1 UNL       0.032033
     10 H3           0.8560    -0.3500    -0.0520 hc         1 UNL       0.038700
     11 H4          -0.4930    -1.3270    -0.6380 hc         1 UNL       0.038700
     12 H5           0.7820    -3.4190    -0.0940 hc         1 UNL       0.038700
     13 H6           2.1530    -2.4480     0.4370 hc         1 UNL       0.038700
     14 H7           0.9190    -3.2400     2.3650 hc         1 UNL       0.038700
     15 H8           0.8270    -1.4840     2.2840 hc         1 UNL       0.038700
     16 H9          -1.4870    -1.6480     1.3270 hc         1 UNL       0.038700
     17 H10         -1.3750    -3.4100     1.3500 hc         1 UNL       0.038700
     18 H11         -1.2380    -1.5790     3.8070 hc         1 UNL       0.032033
     19 H12         -2.6370    -2.5370     3.2970 hc         1 UNL       0.032033
     20 H13         -1.1630    -3.3530     3.8410 hc         1 UNL       0.032033
@<TRIPOS>BOND
     1     1     2 1   
     2     2     3 1   
     3     3     4 1   
     4     4     5 1   
     5     5     6 1   
     6     1     7 1   
     7     1     8 1   
     8     1     9 1   
     9     2    10 1   
    10     2    11 1   
    11     3    12 1   
    12     3    13 1   
    13     4    14 1   
    14     4    15 1   
    15     5    16 1   
    16     5    17 1   
    17     6    18 1   
    18     6    19 1   
    19     6    20 1   
@<TRIPOS>SUBSTRUCTURE
     1 UNL         1 TEMP              0 ****  ****    0 ROOT
