@<TRIPOS>MOLECULE
*****
   17    16     1     0     0
SMALL
bcc


@<TRIPOS>ATOM
      1 H            1.0510     0.2820    -0.2500 hc         1 UNL       0.047867
      2 C            2.1440     0.2110    -0.2410 c3         1 UNL      -0.091600
      3 C1           2.6200    -1.0560    -0.9490 c3         1 UNL      -0.106700
      4 H1           2.2720    -1.0090    -1.9880 hc         1 UNL       0.079700
      5 C2           4.1440    -1.1300    -0.9200 c3         1 UNL      -0.091600
      6 C3           2.0090    -2.3060    -0.3300 c          1 UNL       0.628100
      7 O            2.4180    -3.4080    -1.0240 os         1 UNL      -0.442900
      8 C4           1.8930    -4.6460    -0.5420 c3         1 UNL       0.125700
      9 O1           1.2410    -2.3240     0.6220 o          1 UNL      -0.538000
     10 H2           2.5420     1.1030    -0.7380 hc         1 UNL       0.047867
     11 H3           2.4700     0.2330     0.8050 hc         1 UNL       0.047867
     12 H4           4.5140    -1.2540     0.1040 hc         1 UNL       0.047867
     13 H5           4.5110    -1.9790    -1.5060 hc         1 UNL       0.047867
     14 H6           4.5890    -0.2220    -1.3390 hc         1 UNL       0.047867
     15 H7           2.1420    -4.7920     0.5140 h1         1 UNL       0.050367
     16 H8           0.8110    -4.6840    -0.6970 h1         1 UNL       0.050367
     17 H9           2.3550    -5.4530    -1.1180 h1         1 UNL       0.050367
@<TRIPOS>BOND
     1     1     2 1   
     2     2     3 1   
     3     3     4 1   
     4     3     5 1   
     5     3     6 1   
     6     6     7 1   
     7     7     8 1   
     8     6     9 2   
     9     2    10 1   
    10     2    11 1   
    11     5    12 1   
    12     5    13 1   
    13     5    14 1   
    14     8    15 1   
    15     8    16 1   
    16     8    17 1   
@<TRIPOS>SUBSTRUCTURE
     1 UNL         1 TEMP              0 ****  ****    0 ROOT
