@<TRIPOS>MOLECULE
*****
 17 16 0 0 0
SMALL
GASTEIGER

@<TRIPOS>ATOM
      1 H           1.0512    0.2823   -0.2501 H       1  UNL1        0.0237
      2 C           2.1440    0.2113   -0.2408 C.3     1  UNL1       -0.0525
      3 C           2.6197   -1.0563   -0.9490 C.3     1  UNL1        0.0508
      4 H           2.2722   -1.0094   -1.9885 H       1  UNL1        0.0408
      5 C           4.1443   -1.1303   -0.9199 C.3     1  UNL1       -0.0525
      6 C           2.0093   -2.3060   -0.3304 C.2     1  UNL1        0.3094
      7 O           2.4176   -3.4083   -1.0235 O.3     1  UNL1       -0.4677
      8 C           1.8933   -4.6459   -0.5418 C.3     1  UNL1        0.0817
      9 O           1.2412   -2.3237    0.6224 O.2     1  UNL1       -0.2506
     10 H           2.5416    1.1031   -0.7379 H       1  UNL1        0.0237
     11 H           2.4705    0.2327    0.8048 H       1  UNL1        0.0237
     12 H           4.5144   -1.2540    0.1039 H       1  UNL1        0.0237
     13 H           4.5107   -1.9793   -1.5065 H       1  UNL1        0.0237
     14 H           4.5893   -0.2219   -1.3389 H       1  UNL1        0.0237
     15 H           2.1422   -4.7917    0.5140 H       1  UNL1        0.0661
     16 H           0.8109   -4.6845   -0.6968 H       1  UNL1        0.0661
     17 H           2.3549   -5.4527   -1.1184 H       1  UNL1        0.0661
@<TRIPOS>BOND
     1     1     2    1
     2     2     3    1
     3     3     4    1
     4     3     5    1
     5     3     6    1
     6     6     7    1
     7     7     8    1
     8     6     9    2
     9     2    10    1
    10     2    11    1
    11     5    12    1
    12     5    13    1
    13     5    14    1
    14     8    15    1
    15     8    16    1
    16     8    17    1
