@<TRIPOS>MOLECULE
*****
 15 14 0 0 0
SMALL
GASTEIGER

@<TRIPOS>ATOM
      1 O          -0.8541    1.0770   -0.5606 O.3     1  UNL1       -0.3950
      2 C           0.5641    1.0968   -0.6343 C.3     1  UNL1        0.0442
      3 C           1.1043    2.3149    0.1035 C.3     1  UNL1       -0.0300
      4 C           2.6288    2.3689    0.0611 C.3     1  UNL1       -0.0538
      5 C           3.1647    3.5980    0.7778 C.3     1  UNL1       -0.0652
      6 H          -1.0971    0.9704    0.3747 H       1  UNL1        0.2094
      7 H           0.9466    0.1656   -0.2031 H       1  UNL1        0.0557
      8 H           0.8469    1.1261   -1.6911 H       1  UNL1        0.0557
      9 H           0.6783    3.2238   -0.3397 H       1  UNL1        0.0287
     10 H           0.7550    2.2970    1.1435 H       1  UNL1        0.0287
     11 H           3.0449    1.4695    0.5301 H       1  UNL1        0.0263
     12 H           2.9740    2.3810   -0.9794 H       1  UNL1        0.0263
     13 H           2.8468    3.6125    1.8252 H       1  UNL1        0.0230
     14 H           4.2590    3.6033    0.7548 H       1  UNL1        0.0230
     15 H           2.8110    4.5163    0.2983 H       1  UNL1        0.0230
@<TRIPOS>BOND
     1     1     2    1
     2     2     3    1
     3     3     4    1
     4     4     5    1
     5     1     6    1
     6     2     7    1
     7     2     8    1
     8     3     9    1
     9     3    10    1
    10     4    11    1
    11     4    12    1
    12     5    13    1
    13     5    14    1
    14     5    15    1
