@<TRIPOS>MOLECULE
*****
   15    14     1     0     0
SMALL
bcc


@<TRIPOS>ATOM
      1 O           -0.8540     1.0770    -0.5610 oh         1 UNL      -0.598800
      2 C            0.5640     1.0970    -0.6340 c3         1 UNL       0.126400
      3 C1           1.1040     2.3150     0.1030 c3         1 UNL      -0.120400
      4 C2           2.6290     2.3690     0.0610 c3         1 UNL      -0.077400
      5 C3           3.1650     3.5980     0.7780 c3         1 UNL      -0.093100
      6 H           -1.0970     0.9700     0.3750 ho         1 UNL       0.396000
      7 H1           0.9470     0.1660    -0.2030 h1         1 UNL       0.044200
      8 H2           0.8470     1.1260    -1.6910 h1         1 UNL       0.044200
      9 H3           0.6780     3.2240    -0.3400 hc         1 UNL       0.046700
     10 H4           0.7550     2.2970     1.1430 hc         1 UNL       0.046700
     11 H5           3.0450     1.4700     0.5300 hc         1 UNL       0.040200
     12 H6           2.9740     2.3810    -0.9790 hc         1 UNL       0.040200
     13 H7           2.8470     3.6120     1.8250 hc         1 UNL       0.034033
     14 H8           4.2590     3.6030     0.7550 hc         1 UNL       0.034033
     15 H9           2.8110     4.5160     0.2980 hc         1 UNL       0.034033
@<TRIPOS>BOND
     1     1     2 1   
     2     2     3 1   
     3     3     4 1   
     4     4     5 1   
     5     1     6 1   
     6     2     7 1   
     7     2     8 1   
     8     3     9 1   
     9     3    10 1   
    10     4    11 1   
    11     4    12 1   
    12     5    13 1   
    13     5    14 1   
    14     5    15 1   
@<TRIPOS>SUBSTRUCTURE
     1 UNL         1 TEMP              0 ****  ****    0 ROOT
