@<TRIPOS>MOLECULE
*****
   63    62     1     0     0
SMALL
bcc


@<TRIPOS>ATOM
      1 O            1.6550    -0.5330     8.0920 oh         1 UNL      -0.601800
      2 C            2.9730    -0.1820     7.6850 c3         1 UNL       0.100400
      3 C1           3.8670    -1.4190     7.4710 c3         1 UNL       0.095100
      4 C2           3.9660    -2.2290     8.7670 c3         1 UNL      -0.096100
      5 O1           3.3800    -2.3330     6.4780 os         1 UNL      -0.427600
      6 C3           3.0950    -1.8310     5.1730 c3         1 UNL       0.099400
      7 C4           4.2800    -1.2450     4.3800 c3         1 UNL       0.106100
      8 C5           5.3490    -2.3040     4.1040 c3         1 UNL      -0.094100
      9 O2           3.9030    -0.7400     3.0860 os         1 UNL      -0.415600
     10 C6           2.8990     0.2770     3.0440 c3         1 UNL       0.096400
     11 C7           3.3260     1.6110     3.6870 c3         1 UNL       0.109100
     12 C8           4.4250     2.3080     2.8890 c3         1 UNL      -0.121100
     13 O3           2.2410     2.4710     4.0430 os         1 UNL      -0.424600
     14 C9           1.2760     2.8320     3.0560 c3         1 UNL       0.098400
     15 C10          0.1230     3.5710     3.7860 c3         1 UNL       0.130100
     16 C11          0.5950     4.9350     4.3040 c3         1 UNL      -0.090100
     17 O4          -1.0320     3.8320     2.9830 os         1 UNL      -0.413600
     18 C12         -1.8460     2.7170     2.6200 c3         1 UNL       0.101400
     19 C13         -2.4700     1.8830     3.7660 c3         1 UNL       0.105100
     20 C14         -3.2610     2.7450     4.7560 c3         1 UNL      -0.092100
     21 O5          -3.3930     0.8880     3.2870 os         1 UNL      -0.412600
     22 C15         -2.8880    -0.0950     2.3840 c3         1 UNL       0.094400
     23 C16         -1.7500    -0.9680     2.9350 c3         1 UNL       0.105100
     24 C17         -2.1390    -1.7320     4.1990 c3         1 UNL      -0.126100
     25 O6          -1.3140    -1.8600     1.9070 oh         1 UNL      -0.610800
     26 H           -1.3230    -2.7720     2.2450 ho         1 UNL       0.401000
     27 H1           1.4160    -1.3410     7.5880 ho         1 UNL       0.411000
     28 H2           2.8860     0.4120     6.7730 h1         1 UNL       0.056200
     29 H3           3.3990     0.4640     8.4610 h1         1 UNL       0.056200
     30 H4           4.8730    -1.0910     7.1890 h1         1 UNL       0.048700
     31 H5           3.0120    -2.7130     9.0080 hc         1 UNL       0.048033
     32 H6           4.6990    -3.0360     8.6560 hc         1 UNL       0.048033
     33 H7           4.2650    -1.6060     9.6150 hc         1 UNL       0.048033
     34 H8           2.6790    -2.6670     4.5990 h1         1 UNL       0.060700
     35 H9           2.2750    -1.1180     5.2570 h1         1 UNL       0.060700
     36 H10          4.7590    -0.4490     4.9540 h1         1 UNL       0.047700
     37 H11          5.0070    -3.0220     3.3480 hc         1 UNL       0.049033
     38 H12          6.2470    -1.8310     3.6880 hc         1 UNL       0.049033
     39 H13          5.6370    -2.8500     5.0070 hc         1 UNL       0.049033
     40 H14          2.6780     0.4450     1.9770 h1         1 UNL       0.055200
     41 H15          1.9600    -0.0920     3.4650 h1         1 UNL       0.055200
     42 H16          3.7800     1.3830     4.6530 h1         1 UNL       0.081700
     43 H17          4.4910     3.3700     3.1390 hc         1 UNL       0.047367
     44 H18          5.3960     1.8420     3.1040 hc         1 UNL       0.047367
     45 H19          4.2650     2.2270     1.8100 hc         1 UNL       0.047367
     46 H20          1.7350     3.4740     2.2910 h1         1 UNL       0.040200
     47 H21          0.8890     1.9420     2.5510 h1         1 UNL       0.040200
     48 H22         -0.1780     2.9900     4.6650 h1         1 UNL       0.047700
     49 H23         -0.2330     5.6540     4.3490 hc         1 UNL       0.049033
     50 H24          1.0210     4.8420     5.3080 hc         1 UNL       0.049033
     51 H25          1.3620     5.3730     3.6570 hc         1 UNL       0.049033
     52 H26         -2.6640     3.1150     2.0060 h1         1 UNL       0.053700
     53 H27         -1.2720     2.0750     1.9480 h1         1 UNL       0.053700
     54 H28         -1.6880     1.3760     4.3390 h1         1 UNL       0.044700
     55 H29         -4.0200     2.1470     5.2750 hc         1 UNL       0.049700
     56 H30         -2.6030     3.1860     5.5090 hc         1 UNL       0.049700
     57 H31         -3.7910     3.5560     4.2470 hc         1 UNL       0.049700
     58 H32         -3.7320    -0.7410     2.1160 h1         1 UNL       0.053700
     59 H33         -2.5900     0.3810     1.4430 h1         1 UNL       0.053700
     60 H34         -0.8920    -0.3310     3.1710 h1         1 UNL       0.081700
     61 H35         -2.5220    -2.7330     3.9770 hc         1 UNL       0.049367
     62 H36         -1.2510    -1.8690     4.8280 hc         1 UNL       0.049367
     63 H37         -2.8810    -1.1980     4.8000 hc         1 UNL       0.049367
@<TRIPOS>BOND
     1     1     2 1   
     2     2     3 1   
     3     3     4 1   
     4     3     5 1   
     5     5     6 1   
     6     6     7 1   
     7     7     8 1   
     8     7     9 1   
     9     9    10 1   
    10    10    11 1   
    11    11    12 1   
    12    11    13 1   
    13    13    14 1   
    14    14    15 1   
    15    15    16 1   
    16    15    17 1   
    17    17    18 1   
    18    18    19 1   
    19    19    20 1   
    20    19    21 1   
    21    21    22 1   
    22    22    23 1   
    23    23    24 1   
    24    23    25 1   
    25    25    26 1   
    26     1    27 1   
    27     2    28 1   
    28     2    29 1   
    29     3    30 1   
    30     4    31 1   
    31     4    32 1   
    32     4    33 1   
    33     6    34 1   
    34     6    35 1   
    35     7    36 1   
    36     8    37 1   
    37     8    38 1   
    38     8    39 1   
    39    10    40 1   
    40    10    41 1   
    41    11    42 1   
    42    12    43 1   
    43    12    44 1   
    44    12    45 1   
    45    14    46 1   
    46    14    47 1   
    47    15    48 1   
    48    16    49 1   
    49    16    50 1   
    50    16    51 1   
    51    18    52 1   
    52    18    53 1   
    53    19    54 1   
    54    20    55 1   
    55    20    56 1   
    56    20    57 1   
    57    22    58 1   
    58    22    59 1   
    59    23    60 1   
    60    24    61 1   
    61    24    62 1   
    62    24    63 1   
@<TRIPOS>SUBSTRUCTURE
     1 UNL         1 TEMP              0 ****  ****    0 ROOT
