@<TRIPOS>MOLECULE
*****
   14    14     1     0     0
SMALL
bcc


@<TRIPOS>ATOM
      1 O           -1.4200     0.0150     0.1840 os         1 UNL      -0.412600
      2 C           -0.7370    -1.1670    -0.2590 c3         1 UNL       0.091400
      3 C1           0.7000    -1.1820     0.2610 c3         1 UNL       0.091400
      4 O1           1.4080    -0.0140    -0.1840 os         1 UNL      -0.412600
      5 C2           0.7260     1.1680     0.2610 c3         1 UNL       0.091400
      6 C3          -0.7130     1.1840    -0.2550 c3         1 UNL       0.091400
      7 H           -1.2860    -2.0360     0.1160 h1         1 UNL       0.057200
      8 H1          -0.7580    -1.1920    -1.3540 h1         1 UNL       0.057200
      9 H2           0.7200    -1.2030     1.3570 h1         1 UNL       0.057200
     10 H3           1.2330    -2.0630    -0.1110 h1         1 UNL       0.057200
     11 H4           0.7480     1.1900     1.3570 h1         1 UNL       0.057200
     12 H5           1.2760     2.0370    -0.1120 h1         1 UNL       0.057200
     13 H6          -0.7350     1.2140    -1.3510 h1         1 UNL       0.057200
     14 H7          -1.2430     2.0630     0.1230 h1         1 UNL       0.057200
@<TRIPOS>BOND
     1     1     2 1   
     2     2     3 1   
     3     3     4 1   
     4     4     5 1   
     5     1     6 1   
     6     5     6 1   
     7     2     7 1   
     8     2     8 1   
     9     3     9 1   
    10     3    10 1   
    11     5    11 1   
    12     5    12 1   
    13     6    13 1   
    14     6    14 1   
@<TRIPOS>SUBSTRUCTURE
     1 UNL         1 TEMP              0 ****  ****    0 ROOT
