@<TRIPOS>MOLECULE
*****
 14 14 0 0 0
SMALL
GASTEIGER

@<TRIPOS>ATOM
      1 O          -1.4202    0.0150    0.1839 O.3     1  UNL1       -0.3752
      2 C          -0.7367   -1.1672   -0.2585 C.3     1  UNL1        0.0711
      3 C           0.7004   -1.1819    0.2609 C.3     1  UNL1        0.0711
      4 O           1.4076   -0.0143   -0.1838 O.3     1  UNL1       -0.3752
      5 C           0.7258    1.1683    0.2607 C.3     1  UNL1        0.0711
      6 C          -0.7126    1.1844   -0.2551 C.3     1  UNL1        0.0711
      7 H          -1.2865   -2.0359    0.1161 H       1  UNL1        0.0583
      8 H          -0.7577   -1.1920   -1.3539 H       1  UNL1        0.0583
      9 H           0.7201   -1.2034    1.3565 H       1  UNL1        0.0583
     10 H           1.2326   -2.0626   -0.1105 H       1  UNL1        0.0583
     11 H           0.7484    1.1905    1.3565 H       1  UNL1        0.0583
     12 H           1.2759    2.0372   -0.1121 H       1  UNL1        0.0583
     13 H          -0.7350    1.2136   -1.3507 H       1  UNL1        0.0583
     14 H          -1.2432    2.0630    0.1233 H       1  UNL1        0.0583
@<TRIPOS>BOND
     1     1     2    1
     2     2     3    1
     3     3     4    1
     4     4     5    1
     5     1     6    1
     6     5     6    1
     7     2     7    1
     8     2     8    1
     9     3     9    1
    10     3    10    1
    11     5    11    1
    12     5    12    1
    13     6    13    1
    14     6    14    1
