@<TRIPOS>MOLECULE
*****
   12    11     1     0     0
SMALL
bcc


@<TRIPOS>ATOM
      1 O            0.9400     0.0170    -0.0610 oh         1 UNL      -0.598800
      2 C            0.4730    -0.5350     1.1660 c3         1 UNL       0.135100
      3 C1           0.9600    -1.9700     1.2890 c3         1 UNL      -0.129100
      4 C2           0.9600     0.3270     2.3210 c3         1 UNL      -0.129100
      5 H            1.9130     0.0080    -0.0430 ho         1 UNL       0.395000
      6 H1          -0.6220    -0.5210     1.1350 h1         1 UNL       0.073700
      7 H2           2.0540    -2.0160     1.2770 hc         1 UNL       0.042033
      8 H3           0.6000    -2.4330     2.2130 hc         1 UNL       0.042033
      9 H4           0.6100    -2.5660     0.4400 hc         1 UNL       0.042033
     10 H5           0.6100     1.3580     2.2020 hc         1 UNL       0.042033
     11 H6           0.6010    -0.0560     3.2800 hc         1 UNL       0.042033
     12 H7           2.0540     0.3670     2.3470 hc         1 UNL       0.042033
@<TRIPOS>BOND
     1     1     2 1   
     2     2     3 1   
     3     2     4 1   
     4     1     5 1   
     5     2     6 1   
     6     3     7 1   
     7     3     8 1   
     8     3     9 1   
     9     4    10 1   
    10     4    11 1   
    11     4    12 1   
@<TRIPOS>SUBSTRUCTURE
     1 UNL         1 TEMP              0 ****  ****    0 ROOT
