@<TRIPOS>MOLECULE
*****
 10 9 0 0 0
SMALL
GASTEIGER

@<TRIPOS>ATOM
      1 C           1.0972    0.0656   -0.0310 C.3     1  UNL1        0.0673
      2 C           0.5710   -0.0948    1.3905 C.3     1  UNL1        0.0673
      3 O           1.0932    0.9565    2.2057 O.3     1  UNL1       -0.3928
      4 O           0.6853    1.3251   -0.5573 O.3     1  UNL1       -0.3928
      5 H           0.7193   -0.7262   -0.6833 H       1  UNL1        0.0580
      6 H           2.1911    0.0487   -0.0429 H       1  UNL1        0.0580
      7 H          -0.5191   -0.0056    1.4089 H       1  UNL1        0.0580
      8 H           0.8596   -1.0582    1.8204 H       1  UNL1        0.0580
      9 H           2.0457    0.7912    2.3179 H       1  UNL1        0.2095
     10 H           0.7298    1.9555    0.1887 H       1  UNL1        0.2095
@<TRIPOS>BOND
     1     1     2    1
     2     2     3    1
     3     1     4    1
     4     1     5    1
     5     1     6    1
     6     2     7    1
     7     2     8    1
     8     3     9    1
     9     4    10    1
