@<TRIPOS>MOLECULE
*****
   10     9     1     0     0
SMALL
bcc


@<TRIPOS>ATOM
      1 C            1.0970     0.0660    -0.0310 c3         1 UNL       0.087900
      2 C1           0.5710    -0.0950     1.3910 c3         1 UNL       0.087900
      3 O            1.0930     0.9570     2.2060 oh         1 UNL      -0.598800
      4 O1           0.6850     1.3250    -0.5570 oh         1 UNL      -0.598800
      5 H            0.7190    -0.7260    -0.6830 h1         1 UNL       0.052700
      6 H1           2.1910     0.0490    -0.0430 h1         1 UNL       0.052700
      7 H2          -0.5190    -0.0060     1.4090 h1         1 UNL       0.052700
      8 H3           0.8600    -1.0580     1.8200 h1         1 UNL       0.052700
      9 H4           2.0460     0.7910     2.3180 ho         1 UNL       0.405000
     10 H5           0.7300     1.9560     0.1890 ho         1 UNL       0.405000
@<TRIPOS>BOND
     1     1     2 1   
     2     2     3 1   
     3     1     4 1   
     4     1     5 1   
     5     1     6 1   
     6     2     7 1   
     7     2     8 1   
     8     3     9 1   
     9     4    10 1   
@<TRIPOS>SUBSTRUCTURE
     1 UNL         1 TEMP              0 ****  ****    0 ROOT
