@<TRIPOS>MOLECULE
*****
   32    31     1     0     0
SMALL
bcc


@<TRIPOS>ATOM
      1 H            0.9610     0.3070     0.3580 hc         1 UNL       0.051533
      2 C            2.0280     0.1580     0.1500 c3         1 UNL      -0.095100
      3 C1           2.5470     1.1850    -0.8670 c3         1 UNL      -0.083000
      4 C2           2.1770     2.5850    -0.3240 c3         1 UNL      -0.095100
      5 C3           4.0960     1.1190    -1.0230 c3         1 UNL      -0.071400
      6 C4           4.7900    -0.1820    -1.4910 c3         1 UNL      -0.101700
      7 C5           4.6440    -1.3570    -0.5330 c          1 UNL       0.629100
      8 O            5.1460    -1.0430     0.6930 os         1 UNL      -0.446900
      9 C6           5.0840    -2.0780     1.6810 c3         1 UNL       0.125700
     10 O1           4.1630    -2.4390    -0.8360 o          1 UNL      -0.539000
     11 C7           4.4270    -0.6020    -2.9120 c3         1 UNL      -0.104100
     12 H1           5.8700     0.0270    -1.5120 hc         1 UNL       0.082700
     13 C8           1.8610     1.0970    -2.2360 c          1 UNL       0.632100
     14 O2           0.8530     0.1860    -2.2520 os         1 UNL      -0.432900
     15 C9           0.1310     0.0790    -3.4820 c3         1 UNL       0.123700
     16 O3           2.1820     1.7920    -3.1930 o          1 UNL      -0.550000
     17 H2           2.5590     0.2470     1.1050 hc         1 UNL       0.051533
     18 H3           2.1290    -0.8690    -0.2090 hc         1 UNL       0.051533
     19 H4           2.6120     2.7570     0.6670 hc         1 UNL       0.051533
     20 H5           2.5320     3.3810    -0.9880 hc         1 UNL       0.051533
     21 H6           1.0890     2.7000    -0.2370 hc         1 UNL       0.051533
     22 H7           4.4040     1.9080    -1.7250 hc         1 UNL       0.070700
     23 H8           4.5430     1.4060    -0.0610 hc         1 UNL       0.070700
     24 H9           4.3010    -1.8290     2.4020 h1         1 UNL       0.050700
     25 H10          4.8960    -3.0730     1.2660 h1         1 UNL       0.050700
     26 H11          6.0450    -2.1040     2.2030 h1         1 UNL       0.050700
     27 H12          4.6450     0.2000    -3.6240 hc         1 UNL       0.055700
     28 H13          5.0090    -1.4800    -3.2160 hc         1 UNL       0.055700
     29 H14          3.3740    -0.8810    -3.0030 hc         1 UNL       0.055700
     30 H15          0.0940     1.0220    -4.0360 h1         1 UNL       0.051367
     31 H16          0.5800    -0.7050    -4.0990 h1         1 UNL       0.051367
     32 H17         -0.8960    -0.2100    -3.2430 h1         1 UNL       0.051367
@<TRIPOS>BOND
     1     1     2 1   
     2     2     3 1   
     3     3     4 1   
     4     3     5 1   
     5     5     6 1   
     6     6     7 1   
     7     7     8 1   
     8     8     9 1   
     9     7    10 2   
    10     6    11 1   
    11     6    12 1   
    12     3    13 1   
    13    13    14 1   
    14    14    15 1   
    15    13    16 2   
    16     2    17 1   
    17     2    18 1   
    18     4    19 1   
    19     4    20 1   
    20     4    21 1   
    21     5    22 1   
    22     5    23 1   
    23     9    24 1   
    24     9    25 1   
    25     9    26 1   
    26    11    27 1   
    27    11    28 1   
    28    11    29 1   
    29    15    30 1   
    30    15    31 1   
    31    15    32 1   
@<TRIPOS>SUBSTRUCTURE
     1 UNL         1 TEMP              0 ****  ****    0 ROOT
