@<TRIPOS>MOLECULE
*****
 32 31 0 0 0
SMALL
GASTEIGER

@<TRIPOS>ATOM
      1 H           0.9613    0.3073    0.3584 H       1  UNL1        0.0240
      2 C           2.0280    0.1577    0.1500 C.3     1  UNL1       -0.0496
      3 C           2.5470    1.1847   -0.8670 C.3     1  UNL1        0.0629
      4 C           2.1766    2.5849   -0.3236 C.3     1  UNL1       -0.0496
      5 C           4.0965    1.1195   -1.0231 C.3     1  UNL1       -0.0251
      6 C           4.7905   -0.1822   -1.4910 C.3     1  UNL1        0.0546
      7 C           4.6439   -1.3566   -0.5328 C.2     1  UNL1        0.3097
      8 O           5.1458   -1.0426    0.6928 O.3     1  UNL1       -0.4677
      9 C           5.0844   -2.0780    1.6807 C.3     1  UNL1        0.0817
     10 O           4.1628   -2.4392   -0.8359 O.2     1  UNL1       -0.2506
     11 C           4.4270   -0.6018   -2.9120 C.3     1  UNL1       -0.0523
     12 H           5.8703    0.0270   -1.5120 H       1  UNL1        0.0411
     13 C           1.8613    1.0971   -2.2359 C.2     1  UNL1        0.3125
     14 O           0.8526    0.1861   -2.2519 O.3     1  UNL1       -0.4676
     15 C           0.1310    0.0786   -3.4824 C.3     1  UNL1        0.0817
     16 O           2.1824    1.7924   -3.1931 O.2     1  UNL1       -0.2503
     17 H           2.5589    0.2472    1.1050 H       1  UNL1        0.0240
     18 H           2.1291   -0.8686   -0.2087 H       1  UNL1        0.0240
     19 H           2.6124    2.7570    0.6669 H       1  UNL1        0.0240
     20 H           2.5319    3.3812   -0.9882 H       1  UNL1        0.0240
     21 H           1.0892    2.6995   -0.2373 H       1  UNL1        0.0240
     22 H           4.4035    1.9084   -1.7253 H       1  UNL1        0.0283
     23 H           4.5428    1.4060   -0.0606 H       1  UNL1        0.0283
     24 H           4.3011   -1.8289    2.4021 H       1  UNL1        0.0661
     25 H           4.8962   -3.0727    1.2662 H       1  UNL1        0.0661
     26 H           6.0452   -2.1045    2.2027 H       1  UNL1        0.0661
     27 H           4.6450    0.2001   -3.6241 H       1  UNL1        0.0238
     28 H           5.0091   -1.4805   -3.2158 H       1  UNL1        0.0238
     29 H           3.3744   -0.8807   -3.0035 H       1  UNL1        0.0238
     30 H           0.0942    1.0220   -4.0358 H       1  UNL1        0.0661
     31 H           0.5798   -0.7053   -4.0988 H       1  UNL1        0.0661
     32 H          -0.8964   -0.2100   -3.2428 H       1  UNL1        0.0661
@<TRIPOS>BOND
     1     1     2    1
     2     2     3    1
     3     3     4    1
     4     3     5    1
     5     5     6    1
     6     6     7    1
     7     7     8    1
     8     8     9    1
     9     7    10    2
    10     6    11    1
    11     6    12    1
    12     3    13    1
    13    13    14    1
    14    14    15    1
    15    13    16    2
    16     2    17    1
    17     2    18    1
    18     4    19    1
    19     4    20    1
    20     4    21    1
    21     5    22    1
    22     5    23    1
    23     9    24    1
    24     9    25    1
    25     9    26    1
    26    11    27    1
    27    11    28    1
    28    11    29    1
    29    15    30    1
    30    15    31    1
    31    15    32    1
