@<TRIPOS>MOLECULE
*****
   24    23     1     0     0
SMALL
bcc


@<TRIPOS>ATOM
      1 C            0.9630     2.4140    -0.4030 c3         1 UNL       0.095900
      2 C1           0.8240     2.6460     1.1070 c3         1 UNL       0.089900
      3 O            1.2390     1.5230     1.8930 os         1 UNL      -0.423100
      4 C2           2.6560     1.3390     1.9130 c3         1 UNL       0.122400
      5 C3           3.0180     0.2550     2.9290 c3         1 UNL       0.122400
      6 O1           4.4290     0.0440     2.9190 os         1 UNL      -0.423100
      7 C4           4.8490    -1.0980     3.6660 c3         1 UNL       0.089900
      8 C5           4.7080    -0.9130     5.1780 c3         1 UNL       0.095900
      9 O2           5.2260    -2.0420     5.8750 oh         1 UNL      -0.592300
     10 O3           0.2550     1.2600    -0.8450 oh         1 UNL      -0.592300
     11 H            2.0100     2.2890    -0.6930 h1         1 UNL       0.051450
     12 H1           0.5630     3.2810    -0.9450 h1         1 UNL       0.051450
     13 H2           1.3700     3.5420     1.4190 h1         1 UNL       0.058450
     14 H3          -0.2340     2.8000     1.3450 h1         1 UNL       0.058450
     15 H4           3.0120     1.0400     0.9220 h1         1 UNL       0.042450
     16 H5           3.1590     2.2750     2.1820 h1         1 UNL       0.042450
     17 H6           2.6940     0.5770     3.9260 h1         1 UNL       0.042450
     18 H7           2.4870    -0.6740     2.6870 h1         1 UNL       0.042450
     19 H8           4.3140    -1.9920     3.3250 h1         1 UNL       0.058450
     20 H9           5.9070    -1.2690     3.4270 h1         1 UNL       0.058450
     21 H10          5.2590    -0.0220     5.4990 h1         1 UNL       0.051450
     22 H11          3.6630    -0.7680     5.4690 h1         1 UNL       0.051450
     23 H12          4.4710    -2.5880     6.1490 ho         1 UNL       0.403000
     24 H13         -0.4690     1.0980    -0.2100 ho         1 UNL       0.403000
@<TRIPOS>BOND
     1     1     2 1   
     2     2     3 1   
     3     3     4 1   
     4     4     5 1   
     5     5     6 1   
     6     6     7 1   
     7     7     8 1   
     8     8     9 1   
     9     1    10 1   
    10     1    11 1   
    11     1    12 1   
    12     2    13 1   
    13     2    14 1   
    14     4    15 1   
    15     4    16 1   
    16     5    17 1   
    17     5    18 1   
    18     7    19 1   
    19     7    20 1   
    20     8    21 1   
    21     8    22 1   
    22     9    23 1   
    23    10    24 1   
@<TRIPOS>SUBSTRUCTURE
     1 UNL         1 TEMP              0 ****  ****    0 ROOT
