data_image0
_chemical_formula_structural       OC3H8OC3H8OC3H8OC3H8OC3H8OC3H8OC3H8OC3H8OC3H8OC3H8OC3H8OC3H8OC3H8OC3H8OC3H8OC3H8OC3H8OC3H8OC3H8OC3H8OC3H8OC3H8OC3H8OC3H8OC3H8OC3H8OC3H8OC3H8OC3H8OC3H8OC3H8OC3H8OC3H8OC3H8OC3H8OC3H8OC3H8OC3H8OC3H8OC3H8OC3H8OC3H8OC3H8OC3H8OC3H8OC3H8OC3H8OC3H8OC3H8OC3H8OC3H8OC3H8OC3H8OC3H8OC3H8OC3H8OC3H8OC3H8OC3H8OC3H8OC3H8OC3H8OC3H8OC3H8OC3H8OC3H8OC3H8OC3H8OC3H8OC3H8OC3H8OC3H8OC3H8OC3H8OC3H8OC3H8OC3H8OC3H8OC3H8OC3H8OC3H8OC3H8OC3H8OC3H8OC3H8OC3H8OC3H8OC3H8OC3H8OC3H8OC3H8OC3H8OC3H8OC3H8OC3H8OC3H8OC3H8OC3H8OC3H8OC3H8OC3H8OC3H8OC3H8OC3H8OC3H8OC3H8OC3H8OC3H8OC3H8OC3H8OC3H8OC3H8OC3H8OC3H8OC3H8OC3H8OC3H8OC3H8OC3H8OC3H8OC3H8OC3H8OC3H8OC3H8OC3H8OC3H8OC3H8OC3H8
_chemical_formula_sum              "O128 C384 H1024"
_cell_length_a       25.149499893188477
_cell_length_b       25.149499893188477
_cell_length_c       25.149499893188477
_cell_angle_alpha    90.0
_cell_angle_beta     90.0
_cell_angle_gamma    90.0

_space_group_name_H-M_alt    "P 1"
_space_group_IT_number       1

loop_
  _space_group_symop_operation_xyz
  'x, y, z'

loop_
  _atom_site_type_symbol
  _atom_site_label
  _atom_site_symmetry_multiplicity
  _atom_site_fract_x
  _atom_site_fract_y
  _atom_site_fract_z
  _atom_site_occupancy
  O   O1        1.0  0.0882098785034228  0.45864361235763823  0.23285615916307367  1.0000
  C   C1        1.0  0.12325763268316808  0.4393067701911778  0.1932652418792801  1.0000
  C   C2        1.0  0.12059042934771853  0.4757151013265415  0.14282868904971271  1.0000
  C   C3        1.0  0.0677591919218061  0.4722206020174795  0.11286645229747859  1.0000
  H   H1        1.0  0.10031253069502512  0.44477865633541364  0.2673984182016037  1.0000
  H   H2        1.0  0.16354364649270747  0.4433701102350757  0.21013806685799588  1.0000
  H   H3        1.0  0.1119148540509273  0.3968500893611469  0.1872118678302306  1.0000
  H   H4        1.0  0.12689440838003876  0.5177473407145822  0.1532910171722399  1.0000
  H   H5        1.0  0.15204392597228747  0.47015178910982836  0.11307683381689135  1.0000
  H   H6        1.0  0.06332139910389689  0.5008194176223498  0.0766109870249085  1.0000
  H   H7        1.0  0.05675956285662042  0.4356148204349463  0.0981143529883196  1.0000
  H   H8        1.0  0.03324447259591216  0.4871567284452555  0.13764598241325582  1.0000
  O   O2        1.0  0.5993829926647055  0.8281949048076805  0.08256530383581884  1.0000
  C   C4        1.0  0.6044597123029588  0.8858148911356185  0.07952240595216244  1.0000
  C   C5        1.0  0.6349359199116671  0.8998507535384175  0.028403709140692398  1.0000
  C   C6        1.0  0.6914275525896113  0.8744451990457394  0.02990088881265073  1.0000
  H   H9        1.0  0.5915308170413849  0.8129390734142332  0.04736764647644726  1.0000
  H   H10       1.0  0.5631098471200867  0.9018991274710519  0.07387140372135896  1.0000
  H   H11       1.0  0.6235244770909799  0.9040068842942545  0.11393470256544022  1.0000
  H   H12       1.0  0.6177550311530391  0.8862857084500896  0.989933321892076  1.0000
  H   H13       1.0  0.6393382285249684  0.9409332813973447  0.027941511480724286  1.0000
  H   H14       1.0  0.7145673749507557  0.8842977794569751  0.06600771415139008  1.0000
  H   H15       1.0  0.6890622415395848  0.8328911711549881  0.027706436826154267  1.0000
  H   H16       1.0  0.7151417144032833  0.892892622730918  0.9967316570767174  1.0000
  O   O3        1.0  0.15953422919104135  0.2672827805144787  0.06708708472000134  1.0000
  C   C7        1.0  0.16466858774880228  0.3234502902462561  0.07676008462191541  1.0000
  C   C8        1.0  0.19749078554620536  0.35150430615100536  0.033840030760631634  1.0000
  C   C9        1.0  0.17055054288223476  0.3467248429207025  0.9770627287838738  1.0000
  H   H17       1.0  0.13077524817464775  0.25808821000683096  0.042366942266258874  1.0000
  H   H18       1.0  0.12538005540436328  0.3386255029391879  0.08126752256228983  1.0000
  H   H19       1.0  0.18518404699019028  0.334585939113606  0.11457807599507978  1.0000
  H   H20       1.0  0.20216560812714435  0.3916932444715542  0.04924426550268812  1.0000
  H   H21       1.0  0.2351522091937003  0.3323480779140183  0.02843064406993063  1.0000
  H   H22       1.0  0.18751775144750618  0.3810866959861807  0.9531294826932419  1.0000
  H   H23       1.0  0.1790836139536847  0.3099298015111264  0.9600028054525076  1.0000
  H   H24       1.0  0.13035554718477405  0.35018608590245964  0.9852010691432952  1.0000
  O   O4        1.0  0.44604375027903587  0.42657991314195715  0.264785431053585  1.0000
  C   C10       1.0  0.49619447953236795  0.39687105955945057  0.25704424769698353  1.0000
  C   C11       1.0  0.5422771282896856  0.4324575457242271  0.27637612236903936  1.0000
  C   C12       1.0  0.5924593313299066  0.3979369964613315  0.2786772913881368  1.0000
  H   H25       1.0  0.43824811375216  0.4249895395691278  0.3024669712044756  1.0000
  H   H26       1.0  0.49505660760165215  0.3588700037110659  0.27842148192761773  1.0000
  H   H27       1.0  0.5046606594128541  0.3849591837260414  0.215384062228096  1.0000
  H   H28       1.0  0.5455177895491993  0.4655392508688028  0.2507843796809743  1.0000
  H   H29       1.0  0.5357379398088624  0.4462644461188567  0.3195360521732095  1.0000
  H   H30       1.0  0.6024611656036818  0.3804599129460825  0.24088536574203592  1.0000
  H   H31       1.0  0.6282116426608976  0.42119365096675226  0.2913575634155886  1.0000
  H   H32       1.0  0.5919903721040735  0.3634823522862921  0.30538815454060614  1.0000
  O   O5        1.0  0.5023615568364382  0.02756474812398786  0.747688933770524  1.0000
  C   C13       1.0  0.5040264817923155  0.04085881287358365  0.6936104675673708  1.0000
  C   C14       1.0  0.47651544527316014  0.9990989208494704  0.6571316046119894  1.0000
  C   C15       1.0  0.5039214427254862  0.943021376723753  0.6541105015951227  1.0000
  H   H33       1.0  0.4663949203688484  0.03105074825807979  0.7616200604922483  1.0000
  H   H34       1.0  0.48195745050512373  0.07905636169483013  0.6904115944151539  1.0000
  H   H35       1.0  0.5440793999130777  0.046796861766573654  0.6753974664363201  1.0000
  H   H36       1.0  0.43608829227536355  0.9938281066955912  0.6698504221375274  1.0000
  H   H37       1.0  0.47833311243132026  0.0164318555738727  0.6158668699489723  1.0000
  H   H38       1.0  0.5426169314681302  0.9485792474803743  0.6401027001876914  1.0000
  H   H39       1.0  0.5039000558190951  0.9226744349486367  0.6935761118146254  1.0000
  H   H40       1.0  0.4826725116425769  0.9163331331065594  0.6256515734637587  1.0000
  O   O6        1.0  0.057961846803753284  0.6020546609000726  0.25303054522064367  1.0000
  C   C16       1.0  0.0751971318726782  0.6365342566647127  0.21315395585468097  1.0000
  C   C17       1.0  0.03796903214996442  0.6806744429393774  0.20350032373352073  1.0000
  C   C18       1.0  0.9933117282365699  0.6629575896463751  0.16716193633491008  1.0000
  H   H41       1.0  0.0745027749242631  0.5650191673930121  0.24786067462471922  1.0000
  H   H42       1.0  0.11262230310858506  0.6540189622003126  0.22517858701173651  1.0000
  H   H43       1.0  0.07876598295843315  0.6120997624358062  0.17759549251353887  1.0000
  H   H44       1.0  0.024450828152115557  0.6996211998142152  0.24032901909262247  1.0000
  H   H45       1.0  0.06132145396726925  0.709454441073497  0.177424889518719  1.0000
  H   H46       1.0  0.9726155413457533  0.6977367170133132  0.1556366952274913  1.0000
  H   H47       1.0  0.006469206969959079  0.6430425781301559  0.12934679352733566  1.0000
  H   H48       1.0  0.9643381282407564  0.6367814965711287  0.1845555573555204  1.0000
  O   O7        1.0  0.8794368637123599  0.8689872670557209  0.08171728458730185  1.0000
  C   C19       1.0  0.8320136972452196  0.8515149235949664  0.05369670473510117  1.0000
  C   C20       1.0  0.8029671200527304  0.8058030205796953  0.0833207216405739  1.0000
  C   C21       1.0  0.8373233610781838  0.7540138730605925  0.09168083857701227  1.0000
  H   H49       1.0  0.9057779099682903  0.8650341610129672  0.05315147838633732  1.0000
  H   H50       1.0  0.8051761238196421  0.8846408817069857  0.052777793818456695  1.0000
  H   H51       1.0  0.8433422843427771  0.8381086884240111  0.015370926326240762  1.0000
  H   H52       1.0  0.7879523093565434  0.8220218739060979  0.12215316857382319  1.0000
  H   H53       1.0  0.7703947212583564  0.7934387572217501  0.05859443154967536  1.0000
  H   H54       1.0  0.8085485197066462  0.7218802873657582  0.0988245229748344  1.0000
  H   H55       1.0  0.8576465457208506  0.7416970098499687  0.056014577466072975  1.0000
  H   H56       1.0  0.8695554636425592  0.7559552361178048  0.12181174468720643  1.0000
  O   O8        1.0  0.7601486805380878  0.6122050289425457  0.8352984218063778  1.0000
  C   C22       1.0  0.7853308095143992  0.5671936639131123  0.8100184586778785  1.0000
  C   C23       1.0  0.8180039999750394  0.5897403762695508  0.7647084340316775  1.0000
  C   C24       1.0  0.8683918440825565  0.5562176591745543  0.7446921755717492  1.0000
  H   H57       1.0  0.7859966124158929  0.6311749934359236  0.8570653806852804  1.0000
  H   H58       1.0  0.8152364312243443  0.5526070108361915  0.8385264176052917  1.0000
  H   H59       1.0  0.7574388266527444  0.5347558821097076  0.7967227231197109  1.0000
  H   H60       1.0  0.79226398912992  0.6029741881311593  0.7321553747868796  1.0000
  H   H61       1.0  0.8311373613302471  0.6257976801464206  0.7833854268941566  1.0000
  H   H62       1.0  0.9015094592851389  0.5800998076288334  0.7452286705341661  1.0000
  H   H63       1.0  0.877370363773167  0.5237322875580287  0.7719973809601867  1.0000
  H   H64       1.0  0.8622624971510198  0.5419742976158214  0.7055215843399605  1.0000
  O   O9        1.0  0.9273881826301018  0.7132438834244286  0.8959373878485233  1.0000
  C   C25       1.0  0.9522678598665254  0.6759943303924127  0.8594091529372274  1.0000
  C   C26       1.0  0.9349619101717611  0.6201413497778581  0.8725971193543979  1.0000
  C   C27       1.0  0.9362000051689675  0.6056832082027057  0.930844988943119  1.0000
  H   H65       1.0  0.9541128297544781  0.7416801733322725  0.9003107257068157  1.0000
  H   H66       1.0  0.9466530142195053  0.6812456729861384  0.8164634536355676  1.0000
  H   H67       1.0  0.9957565011772905  0.6779422156469131  0.8628316038951215  1.0000
  H   H68       1.0  0.8956909825511489  0.6188001119741936  0.8560585992340572  1.0000
  H   H69       1.0  0.9540747578244569  0.5888124687525381  0.850007443917  1.0000
  H   H70       1.0  0.9122687881445284  0.6345007096670704  0.9558972032088446  1.0000
  H   H71       1.0  0.9165288203700208  0.5676869679570373  0.9381549438440431  1.0000
  H   H72       1.0  0.977485026915313  0.603256011230231  0.9467868725472772  1.0000
  O   O10       1.0  0.15672740359610698  0.24204536375885144  0.8835951181684781  1.0000
  C   C28       1.0  0.19543799403069761  0.27192582552515204  0.8544561669721372  1.0000
  C   C29       1.0  0.19528980181948752  0.2618325842647662  0.7952630984688865  1.0000
  C   C30       1.0  0.2136161081857159  0.20721250371310299  0.7740248988120948  1.0000
  H   H73       1.0  0.15789917600212536  0.20364885710459632  0.8692069767924342  1.0000
  H   H74       1.0  0.18749240183806237  0.31592360260618624  0.8615330639583951  1.0000
  H   H75       1.0  0.23553751625909547  0.2603440644071551  0.8701615043218862  1.0000
  H   H76       1.0  0.15295831473141458  0.26917924605862725  0.7819833648193735  1.0000
  H   H77       1.0  0.21867172561508819  0.29452456436345126  0.7734751316175692  1.0000
  H   H78       1.0  0.21374389959364248  0.20193590654164426  0.7314079674793853  1.0000
  H   H79       1.0  0.2572365982415489  0.201981202074551  0.7850655954931132  1.0000
  H   H80       1.0  0.18961580072180967  0.17152008701247826  0.789534492309246  1.0000
  O   O11       1.0  0.9850408562879467  0.24430072510762174  0.26857441852469605  1.0000
  C   C31       1.0  0.01336876988566238  0.2694818679808254  0.22604240935779774  1.0000
  C   C32       1.0  0.015542584086031486  0.23061410782052302  0.17733831761831353  1.0000
  C   C33       1.0  0.9609504504121585  0.22477587443124727  0.1468569150752902  1.0000
  H   H81       1.0  0.9998421760589541  0.20744061242398648  0.2703215351745941  1.0000
  H   H82       1.0  0.9938604905129627  0.30573730502221785  0.2141116305640108  1.0000
  H   H83       1.0  0.05445410416222396  0.2821640167851595  0.24033451781031417  1.0000
  H   H84       1.0  0.04636208281530574  0.25006499519711417  0.1545015819997435  1.0000
  H   H85       1.0  0.02685714028828312  0.19012002585765164  0.1912089616264069  1.0000
  H   H86       1.0  0.9558406263382888  0.25569881975035613  0.11636335920908758  1.0000
  H   H87       1.0  0.9582286893317906  0.18755260025180537  0.1262677008881626  1.0000
  H   H88       1.0  0.9254885317343423  0.2284552155868566  0.17271512349939225  1.0000
  O   O12       1.0  0.4658699528722352  0.30756084983204607  0.8230178102112482  1.0000
  C   C34       1.0  0.49706425507831925  0.2961710977011267  0.8728083350852299  1.0000
  C   C35       1.0  0.556731971190894  0.2838109294544336  0.8565997964768577  1.0000
  C   C36       1.0  0.5981431155247053  0.27674939022883255  0.9036590046132605  1.0000
  H   H89       1.0  0.4664966221923782  0.274145219558316  0.8022481526745799  1.0000
  H   H90       1.0  0.4988019866509394  0.3290055251651755  0.9007543162373383  1.0000
  H   H91       1.0  0.4786827746527301  0.2605186491908942  0.895231237822661  1.0000
  H   H92       1.0  0.5555156046575664  0.24421843838189003  0.8398103958210472  1.0000
  H   H93       1.0  0.5680430386557802  0.3158357412169187  0.8270720113060229  1.0000
  H   H94       1.0  0.5823466558858559  0.251470242225886  0.9354884701453686  1.0000
  H   H95       1.0  0.6364877662770324  0.2610202388866566  0.888654735677392  1.0000
  H   H96       1.0  0.6074876413004903  0.3178951690472919  0.9162084704611075  1.0000
  O   O13       1.0  0.1989832303327582  0.13401311255946022  0.44572859530443754  1.0000
  C   C37       1.0  0.25577619584166067  0.14393817751343987  0.44500996948377475  1.0000
  C   C38       1.0  0.2622022496672388  0.20646560814540674  0.4350462067423984  1.0000
  C   C39       1.0  0.23277889679172425  0.24164064119803597  0.4751598735860574  1.0000
  H   H97       1.0  0.18535995863928031  0.14771539059534805  0.4803536909802306  1.0000
  H   H98       1.0  0.2741149784003117  0.13087366046954474  0.48011422458823166  1.0000
  H   H99       1.0  0.27130658855956064  0.12368672829325307  0.41116879874023604  1.0000
  H   H100      1.0  0.3045965515232677  0.21544056355042984  0.4342732414714164  1.0000
  H   H101      1.0  0.2467150291795864  0.21253424492340234  0.3949230601873729  1.0000
  H   H102      1.0  0.18970667648513329  0.24314586516514367  0.46837378635868376  1.0000
  H   H103      1.0  0.2449344096766066  0.2270509355753258  0.514329819874604  1.0000
  H   H104      1.0  0.24456749383179097  0.28317189805944537  0.47178922206773594  1.0000
  O   O14       1.0  0.9569563145276829  0.3498294084322079  0.31349026276802217  1.0000
  C   C40       1.0  0.9128077101929812  0.34654544213662486  0.34991537356110436  1.0000
  C   C41       1.0  0.9289411669902631  0.3774275095057002  0.3988162525138938  1.0000
  C   C42       1.0  0.97141597342923  0.3514414722971828  0.43410388979372544  1.0000
  H   H105      1.0  0.9636362628651647  0.3136813234261031  0.30072948615763234  1.0000
  H   H106      1.0  0.8767675843912954  0.36321713866262856  0.33134250960819095  1.0000
  H   H107      1.0  0.9032501487694596  0.30698573302807663  0.367509554434651  1.0000
  H   H108      1.0  0.9458877087429852  0.41751455633691986  0.3887874566701915  1.0000
  H   H109      1.0  0.8937068452835321  0.3835954591929229  0.42556467545896387  1.0000
  H   H110      1.0  0.9776011385681254  0.3725214306363777  0.4698696248508913  1.0000
  H   H111      1.0  0.9590941801006903  0.3127041767589976  0.4496351354112891  1.0000
  H   H112      1.0  0.008238772448419196  0.33954476495625335  0.41576711721540066  1.0000
  O   O15       1.0  0.32717955326931136  0.02805591216512037  0.1380704043717573  1.0000
  C   C43       1.0  0.29117006664547285  0.03801201232867934  0.18108944151344714  1.0000
  C   C44       1.0  0.2609939222599717  0.9850731834989023  0.1906070538324432  1.0000
  C   C45       1.0  0.22477687922259929  0.9933023427616697  0.23808074893853826  1.0000
  H   H113      1.0  0.3085227910278053  0.04848823575733523  0.11030931238324045  1.0000
  H   H114      1.0  0.3179166887595048  0.04512852918826406  0.21356904959588205  1.0000
  H   H115      1.0  0.2665092840202097  0.07530035062498043  0.17488480401915396  1.0000
  H   H116      1.0  0.2381688377677161  0.9758276672465901  0.15508525961012717  1.0000
  H   H117      1.0  0.2888493119486445  0.9535837668757714  0.20174431466027626  1.0000
  H   H118      1.0  0.1895288498874278  0.01859181661606872  0.23007243661203552  1.0000
  H   H119      1.0  0.2079545451087275  0.9571134748372423  0.24570030323639133  1.0000
  H   H120      1.0  0.24625211818535414  0.010936740737118826  0.27182171570145297  1.0000
  O   O16       1.0  0.6351890752438623  0.5550595383322434  0.6754159713768548  1.0000
  C   C46       1.0  0.5940739737749835  0.5935658427960664  0.6811419989563934  1.0000
  C   C47       1.0  0.5726017686697734  0.6203595048116879  0.6329926228199728  1.0000
  C   C48       1.0  0.6144325380476142  0.6560847794221522  0.6096462492342689  1.0000
  H   H121      1.0  0.660204051790986  0.5674618736202098  0.7017187182628539  1.0000
  H   H122      1.0  0.5600171124601396  0.5763829822288453  0.7007813306368526  1.0000
  H   H123      1.0  0.6056833974708827  0.6223713615171846  0.7076365464754264  1.0000
  H   H124      1.0  0.552602346329919  0.5921502814468865  0.6074560156219131  1.0000
  H   H125      1.0  0.5393153322175428  0.6478274259605732  0.6404291929622942  1.0000
  H   H126      1.0  0.6493716884773207  0.6287594758209412  0.5971741403918599  1.0000
  H   H127      1.0  0.5964877847953943  0.6764508138234455  0.5759258920263036  1.0000
  H   H128      1.0  0.6302380229156319  0.6878167141878267  0.638446041797785  1.0000
  O   O17       1.0  0.03284533424156584  0.44565355126745804  0.9610854463371041  1.0000
  C   C49       1.0  0.010939898652796567  0.48007383968975204  0.9205496518151578  1.0000
  C   C50       1.0  0.029693842150803975  0.46479480107538684  0.8617925899938123  1.0000
  C   C51       1.0  0.0904169772622746  0.46763551800031267  0.860841247815971  1.0000
  H   H129      1.0  0.06428583816244729  0.4626197737296218  0.9739350127846471  1.0000
  H   H130      1.0  0.9672848126803969  0.47810043424587506  0.9187535990032991  1.0000
  H   H131      1.0  0.022657832657512776  0.5223791807310728  0.9250516908410179  1.0000
  H   H132      1.0  0.01570573934581419  0.4246026396291161  0.8536222255383483  1.0000
  H   H133      1.0  0.0093881163046088  0.489648313576814  0.8323524006006016  1.0000
  H   H134      1.0  0.1056892089818416  0.5022181046797225  0.8807812109217911  1.0000
  H   H135      1.0  0.1042429416542813  0.42867955529087726  0.8785351209303435  1.0000
  H   H136      1.0  0.10751847040633856  0.4687501445383772  0.8207937138977008  1.0000
  O   O18       1.0  0.8872225652504263  0.004718745124317237  0.5437504045042172  1.0000
  C   C52       1.0  0.8570698551281313  0.04555573330944461  0.518871864467345  1.0000
  C   C53       1.0  0.795565549811152  0.03277320040162053  0.5254937571772318  1.0000
  C   C54       1.0  0.7728677259011583  0.051292857332299574  0.5813712341039443  1.0000
  H   H137      1.0  0.8906591222542262  0.9723821422712219  0.5181401942521061  1.0000
  H   H138      1.0  0.8656398227583175  0.08308285766612485  0.5348117007146882  1.0000
  H   H139      1.0  0.8659023063078131  0.04294727786187655  0.47529225275916775  1.0000
  H   H140      1.0  0.7714979718246834  0.051482349370719424  0.49429846886804  1.0000
  H   H141      1.0  0.7850338183204699  0.9906661301021108  0.5213279566466066  1.0000
  H   H142      1.0  0.7292454537025317  0.04557664625014855  0.585466503212174  1.0000
  H   H143      1.0  0.7895264531831856  0.02655282342933846  0.6110695840978657  1.0000
  H   H144      1.0  0.7847969686803061  0.09236322232511408  0.5877886229460864  1.0000
  O   O19       1.0  0.4061634069616864  0.5796214442398556  0.3450046683572427  1.0000
  C   C55       1.0  0.4140274893824095  0.636424212329368  0.3484621192158799  1.0000
  C   C56       1.0  0.4681360269588788  0.6492968341061407  0.37352521679941136  1.0000
  C   C57       1.0  0.47918370071700594  0.7091561607883278  0.36076608992361586  1.0000
  H   H145      1.0  0.4244287375627301  0.568892489344292  0.31176735773277187  1.0000
  H   H146      1.0  0.41562226184986767  0.6522034942906558  0.30845872454509815  1.0000
  H   H147      1.0  0.3798557681295045  0.6583756150349749  0.3646031602594016  1.0000
  H   H148      1.0  0.46247351555289373  0.6475619844993771  0.41766198988493264  1.0000
  H   H149      1.0  0.500055704622824  0.6230437625618106  0.360146094294827  1.0000
  H   H150      1.0  0.512735881618565  0.7247030675523028  0.381930534634668  1.0000
  H   H151      1.0  0.4881595281075593  0.710374840687736  0.3166414510754073  1.0000
  H   H152      1.0  0.44028723501571604  0.7317537998035643  0.3678997156721179  1.0000
  O   O20       1.0  0.3919325208001316  0.9861139225562469  0.551275518355537  1.0000
  C   C58       1.0  0.3497781779900332  0.9751673438501406  0.5862592629125527  1.0000
  C   C59       1.0  0.3034740751273198  0.9461376787235694  0.5595622219037235  1.0000
  C   C60       1.0  0.2800871647514478  0.9720308874460367  0.5111067537959837  1.0000
  H   H153      1.0  0.396483704341996  0.9544568417641301  0.5316417609409916  1.0000
  H   H154      1.0  0.3630286748752717  0.9483732269546985  0.618343780037227  1.0000
  H   H155      1.0  0.34027552501422886  0.011887758328446907  0.607199030392487  1.0000
  H   H156      1.0  0.31194222681639894  0.9033284918780052  0.5487159040382188  1.0000
  H   H157      1.0  0.27215019937051543  0.9492551749096957  0.5911508941784818  1.0000
  H   H158      1.0  0.26720857029129624  0.011339962942514159  0.5163115678302959  1.0000
  H   H159      1.0  0.3099455759798707  0.9737974382795995  0.47944334047237813  1.0000
  H   H160      1.0  0.2453850154559712  0.9488190926795688  0.49784321211854676  1.0000
  O   O21       1.0  0.06693095278828592  0.9214071038556193  0.8649391332784138  1.0000
  C   C61       1.0  0.10778164621612048  0.9350152261424839  0.8280184997094144  1.0000
  C   C62       1.0  0.15714233590268642  0.9474683747669155  0.8602634955719222  1.0000
  C   C63       1.0  0.14937481723115575  0.0017742864470879915  0.8889853999067132  1.0000
  H   H161      1.0  0.03755331294900999  0.9478203499567839  0.862149950181417  1.0000
  H   H162      1.0  0.11413841953880985  0.9011029549791518  0.8013706791624337  1.0000
  H   H163      1.0  0.09593833039413582  0.9724702309736188  0.8053987155222118  1.0000
  H   H164      1.0  0.16487121444204242  0.9181476342698164  0.8933519881278073  1.0000
  H   H165      1.0  0.19311813040526618  0.9485286236829276  0.8372129374112405  1.0000
  H   H166      1.0  0.10981848274239565  0.009090005279724922  0.9065668779431715  1.0000
  H   H167      1.0  0.1791654648854624  0.0038367668232504037  0.92047631437275  1.0000
  H   H168      1.0  0.1599779143556526  0.035637413492038084  0.8646652733595585  1.0000
  O   O22       1.0  0.5588680164493744  0.7578431317102281  0.15491969965793392  1.0000
  C   C64       1.0  0.5306043776884098  0.7886903884467374  0.1896757526097758  1.0000
  C   C65       1.0  0.5604366619559472  0.7932715288467183  0.2449242850219979  1.0000
  C   C66       1.0  0.6081815811431958  0.832755871844288  0.24939128597538174  1.0000
  H   H169      1.0  0.5718491282562308  0.7802531415471492  0.12543877466344486  1.0000
  H   H170      1.0  0.5263260679622931  0.8275934145170486  0.1747463384427095  1.0000
  H   H171      1.0  0.48996635051726883  0.7752334918310054  0.19391691964900146  1.0000
  H   H172      1.0  0.534464427407581  0.8042659629775889  0.27606358414627613  1.0000
  H   H173      1.0  0.5738538182188195  0.7534007034124686  0.25621256276929777  1.0000
  H   H174      1.0  0.6441928499098281  0.8192627236130618  0.23001472214430596  1.0000
  H   H175      1.0  0.5997380017121188  0.8683345085488035  0.23140277240964963  1.0000
  H   H176      1.0  0.6227273566677054  0.8394205761410681  0.2901663946000165  1.0000
  O   O23       1.0  0.9141466728022983  0.9471756305759269  0.46485498080088544  1.0000
  C   C67       1.0  0.9657230880594189  0.9345912022038256  0.44707692430278806  1.0000
  C   C68       1.0  0.9674462583086904  0.9372639702622554  0.38587203686815164  1.0000
  C   C69       1.0  0.9542864284351095  0.9934069645960084  0.3686802274152288  1.0000
  H   H177      1.0  0.8914056953503012  0.928735715191144  0.4384638794740649  1.0000
  H   H178      1.0  0.9955194236995943  0.9618123009496267  0.4646022044026668  1.0000
  H   H179      1.0  0.9750419795282498  0.8952533074464053  0.4601931839262782  1.0000
  H   H180      1.0  0.008020048417191505  0.925304846173213  0.37627890654648893  1.0000
  H   H181      1.0  0.9409442024892616  0.9063694652701129  0.36692061588466374  1.0000
  H   H182      1.0  0.9122958630367884  0.996326138349435  0.37981864413085775  1.0000
  H   H183      1.0  0.977046972876593  0.023113429661834495  0.3894584167318892  1.0000
  H   H184      1.0  0.9633156095704967  3.21563774610123e-05  0.32803404700044997  1.0000
  O   O24       1.0  0.28666010261112956  0.8288852799671762  0.1503794085791866  1.0000
  C   C70       1.0  0.27599401934349954  0.7819665283016775  0.12438908659361768  1.0000
  C   C71       1.0  0.3233626185227879  0.757826295192532  0.09511648542354864  1.0000
  C   C72       1.0  0.3734781196402222  0.7591317362605228  0.12612970927740538  1.0000
  H   H185      1.0  0.31418031545589686  0.8448748675020328  0.12801764304156185  1.0000
  H   H186      1.0  0.2542778547151954  0.755380289893768  0.1532136697097352  1.0000
  H   H187      1.0  0.24682025751459266  0.7929554259407455  0.09416162627716444  1.0000
  H   H188      1.0  0.3106309458708509  0.7177595740139961  0.0845079941560042  1.0000
  H   H189      1.0  0.32934066383734784  0.7780508874174358  0.05493937835218032  1.0000
  H   H190      1.0  0.3641562702596905  0.7468126738013956  0.16632549226686333  1.0000
  H   H191      1.0  0.40559001544053314  0.7317949811393522  0.10955133508425  1.0000
  H   H192      1.0  0.39028473614532727  0.7980752613468909  0.1302165316967982  1.0000
  O   O25       1.0  0.5863397297213798  0.11903436421059034  0.024150300903776633  1.0000
  C   C73       1.0  0.6264520311303324  0.078219486604296  0.02409724577323062  1.0000
  C   C74       1.0  0.680899537276205  0.10149357485598853  0.029355312158710338  1.0000
  C   C75       1.0  0.705948945124296  0.12511583663149617  0.9805786905475489  1.0000
  H   H193      1.0  0.5770037738973202  0.12215512169417185  0.06277143270063867  1.0000
  H   H194      1.0  0.6162487646204684  0.04942876618937004  0.05696778727548525  1.0000
  H   H195      1.0  0.6260769246653901  0.060268788899874796  0.9828933401527987  1.0000
  H   H196      1.0  0.6794461314369142  0.12774716768305014  0.06396660676484107  1.0000
  H   H197      1.0  0.7093826201622393  0.06935775134329537  0.04219204495145417  1.0000
  H   H198      1.0  0.6828450713905136  0.1613517826292463  0.970946198807003  1.0000
  H   H199      1.0  0.7495811523117321  0.1376214101552537  0.9876266354670423  1.0000
  H   H200      1.0  0.7049630197537993  0.09562625659412657  0.9503029103835773  1.0000
  O   O26       1.0  0.5579891019543  0.7594556508526458  0.9858741909502267  1.0000
  C   C76       1.0  0.5067945054228312  0.7325764408138374  0.9824207214828865  1.0000
  C   C77       1.0  0.46533262369839906  0.7603473823023862  0.018146868078880996  1.0000
  C   C78       1.0  0.4606982810476505  0.8209286342744245  0.006295361636769803  1.0000
  H   H201      1.0  0.5856778704370721  0.7396148869360978  0.9653695199949338  1.0000
  H   H202      1.0  0.4893089275040789  0.7309470851537236  0.942349222078123  1.0000
  H   H203      1.0  0.510272243762419  0.6913288842260042  0.9947168805044724  1.0000
  H   H204      1.0  0.4249808940691806  0.7440600457056478  0.01531256002891035  1.0000
  H   H205      1.0  0.48006356354107715  0.7551213710274823  0.06032809611543999  1.0000
  H   H206      1.0  0.4969813615810786  0.8445410938669445  0.021130202949103172  1.0000
  H   H207      1.0  0.44699846747428723  0.8332051503606797  0.9670352032163861  1.0000
  H   H208      1.0  0.43087327724297625  0.8358683627618988  0.0327375788905655  1.0000
  O   O27       1.0  0.4204189409294653  0.9113774356287645  0.47566504665327375  1.0000
  C   C79       1.0  0.47726095632028354  0.9109528053162194  0.47325400387876426  1.0000
  C   C80       1.0  0.49463315266039165  0.8657729983687362  0.43437907657793157  1.0000
  C   C81       1.0  0.4775746703119536  0.8701763690309893  0.37281239268457267  1.0000
  H   H209      1.0  0.40335219201505645  0.8839245688547817  0.45270269104172506  1.0000
  H   H210      1.0  0.4908801138166426  0.95029494707658  0.4549112399288162  1.0000
  H   H211      1.0  0.4941615770803455  0.906544732373583  0.5120392494758024  1.0000
  H   H212      1.0  0.5362077710202259  0.8546194513323607  0.4396840003564015  1.0000
  H   H213      1.0  0.4750658315569894  0.8312976122305479  0.4530363127851249  1.0000
  H   H214      1.0  0.4683704117388957  0.8287830473179817  0.35814390736411844  1.0000
  H   H215      1.0  0.44117873902554616  0.8973417251176539  0.3677314638174898  1.0000
  H   H216      1.0  0.5100711149120847  0.8901367333377149  0.3492947333866957  1.0000
  O   O28       1.0  0.1216524321753467  0.690736874044361  0.7875960112178902  1.0000
  C   C82       1.0  0.16522068699765297  0.6551079548290455  0.7753912396994262  1.0000
  C   C83       1.0  0.17487031864164954  0.6106204952472735  0.8167291225366741  1.0000
  C   C84       1.0  0.15226662185187897  0.6219843100831067  0.8732045254684311  1.0000
  H   H217      1.0  0.086900645312312  0.6773287426130346  0.7723112846176562  1.0000
  H   H218      1.0  0.15955262041162085  0.6385694343110826  0.7360004842487259  1.0000
  H   H219      1.0  0.2013888885071534  0.6789228323631398  0.7740105649286566  1.0000
  H   H220      1.0  0.15728790221675026  0.5749244192293507  0.799031153913427  1.0000
  H   H221      1.0  0.21835691180035524  0.607171235008763  0.8113684942708008  1.0000
  H   H222      1.0  0.10941017681012616  0.6125746752591517  0.879371944329989  1.0000
  H   H223      1.0  0.17497875141413335  0.5945982963283545  0.8983268922225756  1.0000
  H   H224      1.0  0.1617990137888228  0.6631025209577522  0.8865313558795112  1.0000
  O   O29       1.0  0.1198139371676379  0.16741823884698295  0.5405180098106743  1.0000
  C   C85       1.0  0.08286967966963307  0.1579356836863298  0.4977957360253811  1.0000
  C   C86       1.0  0.059897080912053854  0.10004356272235256  0.5000312842565102  1.0000
  C   C87       1.0  0.027694963834594775  0.08768004808704902  0.5496499925926541  1.0000
  H   H225      1.0  0.0981538185842247  0.18188189822569367  0.5684841647237782  1.0000
  H   H226      1.0  0.04879605818055951  0.18292119642689084  0.5036654813732789  1.0000
  H   H227      1.0  0.10027605163962058  0.16875932515658126  0.45991776930453954  1.0000
  H   H228      1.0  0.03410475173036365  0.10054291499787836  0.4649435622839949  1.0000
  H   H229      1.0  0.09459975626172863  0.07153395922943402  0.4976015087039335  1.0000
  H   H230      1.0  0.015404850658876541  0.04404702100259367  0.5506923815113737  1.0000
  H   H231      1.0  0.05538149012566378  0.09739111991898422  0.5839496567475517  1.0000
  H   H232      1.0  0.9912137926822215  0.11032748570684296  0.5562749187624634  1.0000
  O   O30       1.0  0.04104579273481237  0.20828896368705785  0.6087952438428735  1.0000
  C   C88       1.0  0.059470464476515675  0.24540041138836127  0.652061900222578  1.0000
  C   C89       1.0  0.033592805566237845  0.3022513569766368  0.6438549048200212  1.0000
  C   C90       1.0  0.06518071718968774  0.3351788594525126  0.6061551631143505  1.0000
  H   H233      1.0  0.0051517000556774864  0.19919977340610473  0.6148230404449466  1.0000
  H   H234      1.0  0.047044779618876105  0.23010559790762958  0.6905267199648585  1.0000
  H   H235      1.0  0.10342984715590765  0.24929494966609966  0.6543487162723706  1.0000
  H   H236      1.0  0.9929505381517341  0.2960473453397192  0.6303787827722904  1.0000
  H   H237      1.0  0.027500267318926637  0.32057912341166006  0.6822059640496813  1.0000
  H   H238      1.0  0.10544815011284828  0.3369948581878341  0.6183219760251262  1.0000
  H   H239      1.0  0.06358896426537443  0.32126942302293393  0.5640500407661005  1.0000
  H   H240      1.0  0.04472530924182105  0.3742498339916975  0.6085293475018567  1.0000
  O   O31       1.0  0.28015375295427936  0.8109752614016781  0.26569762056420876  1.0000
  C   C91       1.0  0.30135194664656795  0.8488216028415646  0.3030833262042105  1.0000
  C   C92       1.0  0.2587082434097307  0.8629553753423955  0.34094701629921353  1.0000
  C   C93       1.0  0.2809801856900504  0.8995238054863718  0.38562737593945995  1.0000
  H   H241      1.0  0.30153055059571515  0.8112566296209291  0.23271338972371108  1.0000
  H   H242      1.0  0.3369046082818861  0.8334667996987558  0.3244025044096274  1.0000
  H   H243      1.0  0.3161016379555577  0.8848602121121003  0.2831237014748155  1.0000
  H   H244      1.0  0.2261050917175542  0.8852453299093184  0.3225979575918877  1.0000
  H   H245      1.0  0.2395627088247503  0.8242572702455387  0.3505787497741844  1.0000
  H   H246      1.0  0.2674905830561672  0.890953458922209  0.4290292556840203  1.0000
  H   H247      1.0  0.3225529841329798  0.8918629374445313  0.38665948831188257  1.0000
  H   H248      1.0  0.27407193897588583  0.9417980139006692  0.3768343617268834  1.0000
  O   O32       1.0  0.7677688984674275  0.8437412807459908  0.6819148127333092  1.0000
  C   C94       1.0  0.7873151742219263  0.7983194673957621  0.7106400543113998  1.0000
  C   C95       1.0  0.8457450605513158  0.8059987648299154  0.7250852274378201  1.0000
  C   C96       1.0  0.872615245360956  0.7666048995758261  0.7621584517150363  1.0000
  H   H249      1.0  0.7539919553285366  0.8663040331828169  0.7104917106061235  1.0000
  H   H250      1.0  0.7668930933781196  0.7910877041093176  0.746912783147931  1.0000
  H   H251      1.0  0.7882628757707134  0.7649874511107368  0.6829165129701725  1.0000
  H   H252      1.0  0.8667990434236914  0.8136614531862829  0.6892940099653888  1.0000
  H   H253      1.0  0.8459950305319  0.8450229837673987  0.7461054617265815  1.0000
  H   H254      1.0  0.8664703514005853  0.727931215242905  0.7438930451681484  1.0000
  H   H255      1.0  0.9134044226550078  0.779753884303334  0.7611155701423851  1.0000
  H   H256      1.0  0.8562111143940522  0.7694972258769031  0.8024924346692952  1.0000
  O   O33       1.0  0.7784495048866727  0.8473697139310464  0.5729833217837819  1.0000
  C   C97       1.0  0.8182475237041796  0.8854464583620305  0.5633018370212978  1.0000
  C   C98       1.0  0.8727527439201594  0.862823564769061  0.5676450283556743  1.0000
  C   C99       1.0  0.8815880011198535  0.8215958022130023  0.5218777997869763  1.0000
  H   H257      1.0  0.771618785757879  0.8474316754017165  0.6121176987765651  1.0000
  H   H258      1.0  0.8148529822475871  0.9071786825542113  0.5251027617283456  1.0000
  H   H259      1.0  0.8161555413497213  0.9181634846844049  0.5913230518761851  1.0000
  H   H260      1.0  0.8991832822140852  0.8983595036066382  0.5625479075165152  1.0000
  H   H261      1.0  0.8765752529325966  0.8436655921633913  0.6060456873787814  1.0000
  H   H262      1.0  0.9220644882994538  0.8154426412890383  0.5121477013341528  1.0000
  H   H263      1.0  0.8614965089571465  0.7835019934267894  0.5289724812223049  1.0000
  H   H264      1.0  0.8578854431154517  0.8351679762701273  0.4881216458433375  1.0000
  O   O34       1.0  0.8846988236146257  0.6458073404632166  0.352142313668775  1.0000
  C   C100      1.0  0.8716121041411644  0.6643614716380628  0.40290977685581847  1.0000
  C   C101      1.0  0.8886032400211958  0.7230646870606431  0.4070751602807339  1.0000
  C   C102      1.0  0.9477640764719826  0.7305397462386952  0.4216169540163244  1.0000
  H   H265      1.0  0.9221094617583617  0.6346775314734239  0.35306176495401753  1.0000
  H   H266      1.0  0.826705019515363  0.6695471361862204  0.40365817026642054  1.0000
  H   H267      1.0  0.8928079089191504  0.6404937334106886  0.43288771252857494  1.0000
  H   H268      1.0  0.8765892074844363  0.7399273496106391  0.37024944152157724  1.0000
  H   H269      1.0  0.8627143542475132  0.7393464116173568  0.43650556617920133  1.0000
  H   H270      1.0  0.9493216871666832  0.7361724900547408  0.4650595602168521  1.0000
  H   H271      1.0  0.9742056873518915  0.6948954314886117  0.4139824781493906  1.0000
  H   H272      1.0  0.9613420904066647  0.7643498606986768  0.39838855017207053  1.0000
  O   O35       1.0  0.11352006410168197  0.13249241711174048  0.22746181969007512  1.0000
  C   C103      1.0  0.16484982713802904  0.15647964240695955  0.2192377794157785  1.0000
  C   C104      1.0  0.19000818029364652  0.16999489803604104  0.27300543307660696  1.0000
  C   C105      1.0  0.15676643300043586  0.2070545470930162  0.3029821174322345  1.0000
  H   H273      1.0  0.11596912194623506  0.12243914404174681  0.2638054779688449  1.0000
  H   H274      1.0  0.19258173007693785  0.1273215604127084  0.201197789279717  1.0000
  H   H275      1.0  0.16385093292117806  0.1881635324796928  0.19140095152761794  1.0000
  H   H276      1.0  0.19617999765221117  0.13256057870569982  0.2956385841300069  1.0000
  H   H277      1.0  0.2300720576780591  0.18452977155450034  0.2700911512693631  1.0000
  H   H278      1.0  0.11818467653923478  0.1905294125271173  0.31643243499070084  1.0000
  H   H279      1.0  0.17880916674680927  0.21997686329732455  0.3376776117246013  1.0000
  H   H280      1.0  0.15037610990524272  0.24330894117132343  0.2782866565826049  1.0000
  O   O36       1.0  0.9071286278809436  0.4394944749177151  0.6529067623506617  1.0000
  C   C106      1.0  0.9120364129472156  0.4185682071097997  0.6004003158762469  1.0000
  C   C107      1.0  0.9034680381916459  0.4603896104962292  0.5579197459031893  1.0000
  C   C108      1.0  0.9458667007705706  0.5032882130363221  0.5564554189719816  1.0000
  H   H281      1.0  0.8976094417731976  0.47813926444147137  0.6477110109220064  1.0000
  H   H282      1.0  0.9500814565490228  0.3994370064082576  0.5966406029435215  1.0000
  H   H283      1.0  0.8824231560966604  0.3861414601182671  0.59505523503683  1.0000
  H   H284      1.0  0.9027441414908239  0.4451793211614657  0.5163202137278653  1.0000
  H   H285      1.0  0.8646426729101493  0.4779127668958266  0.5661146444449221  1.0000
  H   H286      1.0  0.940925090777218  0.5312224770568275  0.5262562188596286  1.0000
  H   H287      1.0  0.9558991750174376  0.5253313829742717  0.593144928660797  1.0000
  H   H288      1.0  0.9859670953821208  0.48271558923873586  0.5467952455676667  1.0000
  O   O37       1.0  0.9926261116930319  0.9942342320676018  0.13773540765071784  1.0000
  C   C109      1.0  0.9569721653398936  0.9883552722223586  0.18096612494599365  1.0000
  C   C110      1.0  0.9457364071260084  0.04293202944733038  0.21096116274808974  1.0000
  C   C111      1.0  0.9180494967318741  0.08641219544045879  0.17664316423259013  1.0000
  H   H289      1.0  0.023284829093962678  0.016471117189578523  0.14650292036216228  1.0000
  H   H290      1.0  0.9216469869557056  0.9666575179005006  0.17028792652691754  1.0000
  H   H291      1.0  0.9755099908227085  0.9634921281178767  0.21073087347694727  1.0000
  H   H292      1.0  0.918614356075413  0.031152495410542772  0.24058953123114712  1.0000
  H   H293      1.0  0.9821448142072162  0.05958023405490588  0.22563617026583205  1.0000
  H   H294      1.0  0.9194927397448228  0.12584475808432255  0.1960872069402721  1.0000
  H   H295      1.0  0.9412146496165956  0.09227153143623781  0.14010085150656615  1.0000
  H   H296      1.0  0.8793237855194701  0.07782895557816376  0.16139743880550733  1.0000
  O   O38       1.0  0.8202566881096192  0.6974432905025937  0.9016264055469926  1.0000
  C   C112      1.0  0.8037883200800753  0.7399334165304844  0.9368252335061822  1.0000
  C   C113      1.0  0.7734585984856276  0.7840958239229595  0.9058686151516813  1.0000
  C   C114      1.0  0.7292937640071167  0.7618992290653738  0.8733463469764192  1.0000
  H   H297      1.0  0.8587220386775646  0.7046709582801638  0.8962486369800466  1.0000
  H   H298      1.0  0.7744027357488275  0.7261108935587989  0.9648345415636672  1.0000
  H   H299      1.0  0.8372086144624556  0.7582361367418181  0.9581095442190557  1.0000
  H   H300      1.0  0.7564222617067781  0.8139293217335148  0.9340035909168114  1.0000
  H   H301      1.0  0.801317590631621  0.8072734907742146  0.8820748966864456  1.0000
  H   H302      1.0  0.7038954144290798  0.7915158231592283  0.8570789563031436  1.0000
  H   H303      1.0  0.7442922690112723  0.7382038000297689  0.8399745143926901  1.0000
  H   H304      1.0  0.7051747663102961  0.7305858572947769  0.891211088697255  1.0000
  O   O39       1.0  0.3562753131495381  0.555964920948069  0.4312326092391742  1.0000
  C   C115      1.0  0.30852664001090285  0.5307890871267577  0.41897892104223855  1.0000
  C   C116      1.0  0.2760549764204399  0.5259662810862744  0.47176347404082686  1.0000
  C   C117      1.0  0.26390465846987254  0.5808758067573602  0.49555184568005917  1.0000
  H   H305      1.0  0.3774073739164379  0.5672074669708859  0.39826838118211705  1.0000
  H   H306      1.0  0.28838042866865554  0.5516905170650274  0.3868948210232739  1.0000
  H   H307      1.0  0.32145318452990734  0.48992945395853243  0.40499880129857607  1.0000
  H   H308      1.0  0.2365919825551502  0.5091521944525069  0.46153317001519156  1.0000
  H   H309      1.0  0.29517480115024436  0.5023846881115122  0.5022311494719209  1.0000
  H   H310      1.0  0.25694957981054  0.5765202533481384  0.5380229359417503  1.0000
  H   H311      1.0  0.2968146607965656  0.6075331074133298  0.49516976174038596  1.0000
  H   H312      1.0  0.23137596273141092  0.5988903331664005  0.47920110623210005  1.0000
  O   O40       1.0  0.5066548072175022  0.12294225981159268  0.8150361369830514  1.0000
  C   C118      1.0  0.5330446190554606  0.12125835594949363  0.8686429516603145  1.0000
  C   C119      1.0  0.5927813114899253  0.12200221765964504  0.8619087775924686  1.0000
  C   C120      1.0  0.6129472413157252  0.0786041395811379  0.8228752300400627  1.0000
  H   H313      1.0  0.5119593138902624  0.0885122733833329  0.7995310938745953  1.0000
  H   H314      1.0  0.5278606229301417  0.15760330371712555  0.8928757102673777  1.0000
  H   H315      1.0  0.5217882322007593  0.08839982104781884  0.8926959683234346  1.0000
  H   H316      1.0  0.6033943062267427  0.16122012354997783  0.8453594878742773  1.0000
  H   H317      1.0  0.6182732863889426  0.12166805554764709  0.89633577787785  1.0000
  H   H318      1.0  0.6557931728283373  0.07319083074485076  0.8331008699570478  1.0000
  H   H319      1.0  0.5935137025942505  0.03943072364109249  0.8271294227856202  1.0000
  H   H320      1.0  0.6126719785856748  0.09717757213382709  0.7834118950149076  1.0000
  O   O41       1.0  0.3121903387083451  0.6306727023345637  0.7544848422667518  1.0000
  C   C121      1.0  0.3519868028229685  0.590675564647049  0.7434081973559936  1.0000
  C   C122      1.0  0.4042965571157888  0.6153570327731057  0.7201084274803029  1.0000
  C   C123      1.0  0.4341179202914092  0.6575537322902768  0.7540506558993738  1.0000
  H   H321      1.0  0.30774294291618093  0.649416889376139  0.7216153007843825  1.0000
  H   H322      1.0  0.36265918045035406  0.56926535878662  0.7791132600337293  1.0000
  H   H323      1.0  0.3360102600803105  0.5606177689369745  0.7146415466045827  1.0000
  H   H324      1.0  0.4302690946522872  0.5833913577730341  0.712087317285001  1.0000
  H   H325      1.0  0.3939662956353065  0.6321211406794498  0.6791972231076598  1.0000
  H   H326      1.0  0.4506479086317577  0.645990419252837  0.7921246702561897  1.0000
  H   H327      1.0  0.4677215209033201  0.6679820935345905  0.7309705957603961  1.0000
  H   H328      1.0  0.40816479745508677  0.6903613878501978  0.7580922674793928  1.0000
  O   O42       1.0  0.8749621270186699  0.23381470625555598  0.7543513628729565  1.0000
  C   C124      1.0  0.8942352255716666  0.2818857392834309  0.7806230153036654  1.0000
  C   C125      1.0  0.9008869614197145  0.32873215829787406  0.7402838751892026  1.0000
  C   C126      1.0  0.9345710288404524  0.3735219932760673  0.7667894193483745  1.0000
  H   H329      1.0  0.8358303663800997  0.23755202749053833  0.7628940277733502  1.0000
  H   H330      1.0  0.869827123915289  0.29820820938197873  0.8127475761669538  1.0000
  H   H331      1.0  0.9337055380715525  0.2726691377213943  0.7987654090664764  1.0000
  H   H332      1.0  0.91985290595244  0.3126822586293194  0.7034666882100379  1.0000
  H   H333      1.0  0.8625963467319522  0.3455419219828569  0.7299303687136911  1.0000
  H   H334      1.0  0.9083239486677455  0.40606113614075856  0.7763236980027562  1.0000
  H   H335      1.0  0.9589140592227707  0.36380293003273806  0.8011097880899326  1.0000
  H   H336      1.0  0.9639864181381282  0.38529849385293224  0.7376061018622571  1.0000
  O   O43       1.0  0.6414278597392349  0.8658944190734409  0.5076199902272278  1.0000
  C   C127      1.0  0.652750986290834  0.8559026712825413  0.5626328487681931  1.0000
  C   C128      1.0  0.5994804097111838  0.8462770051250378  0.5929326890527463  1.0000
  C   C129      1.0  0.5646241905528289  0.8006942585547775  0.5716412497686981  1.0000
  H   H337      1.0  0.6644767490794558  0.8421255762519619  0.48455638767196985  1.0000
  H   H338      1.0  0.6779457803301228  0.8199312565887237  0.5643067985556162  1.0000
  H   H339      1.0  0.6763199893532186  0.8894564450587168  0.5811379113728793  1.0000
  H   H340      1.0  0.6064711900744791  0.8420520113696439  0.6356311488456126  1.0000
  H   H341      1.0  0.5744599348439906  0.8821882023192456  0.5855437464976568  1.0000
  H   H342      1.0  0.5877521816647928  0.7653597515556668  0.5783035269794421  1.0000
  H   H343      1.0  0.52726064917066  0.7964223191342604  0.5977482524044773  1.0000
  H   H344      1.0  0.5579666911706902  0.8011326159792519  0.5274848337478463  1.0000
  O   O44       1.0  0.637403842942487  0.6902109204446403  0.9492674043055  1.0000
  C   C130      1.0  0.6466929290472676  0.6406321421271555  0.9751562900791827  1.0000
  C   C131      1.0  0.6347212913893139  0.6462597287829972  0.03310349007080993  1.0000
  C   C132      1.0  0.6721800123977245  0.6881435107458064  0.060818328654490085  1.0000
  H   H345      1.0  0.6475631220965508  0.6855326282122025  0.9115518686475962  1.0000
  H   H346      1.0  0.6234436691222874  0.6084458468354849  0.9594049931674182  1.0000
  H   H347      1.0  0.6865792263597517  0.6271546168706074  0.9698281213056839  1.0000
  H   H348      1.0  0.5913893366932621  0.6548290136958304  0.037156591740144025  1.0000
  H   H349      1.0  0.6443385390891581  0.6068588105059549  0.045939481298111935  1.0000
  H   H350      1.0  0.7108635561712328  0.6945231310436817  0.04294511161601753  1.0000
  H   H351      1.0  0.6536307349973277  0.7287290565552659  0.06206666202626036  1.0000
  H   H352      1.0  0.6803369527293913  0.6763978016360993  0.1005503664382965  1.0000
  O   O45       1.0  0.721229121335835  0.3339073188598243  0.31972743570053375  1.0000
  C   C133      1.0  0.7669465608429086  0.3061318647566914  0.33735737553564304  1.0000
  C   C134      1.0  0.7786742198919016  0.3147944334330175  0.3956100229529696  1.0000
  C   C135      1.0  0.737979767344271  0.29347250606756575  0.4338766717566166  1.0000
  H   H353      1.0  0.7280401219810761  0.3714590580200842  0.32345848086638274  1.0000
  H   H354      1.0  0.766014861202776  0.2638320411213067  0.3243258297239204  1.0000
  H   H355      1.0  0.7967984876481544  0.32305015624586886  0.3127664225295556  1.0000
  H   H356      1.0  0.82039775095441  0.30379489900192036  0.4040777953104501  1.0000
  H   H357      1.0  0.7793642920632651  0.35963170673026545  0.3991507084687129  1.0000
  H   H358      1.0  0.6955504651898767  0.30105137208118476  0.4201700326002108  1.0000
  H   H359      1.0  0.7457531072051143  0.25142083249586045  0.4365666556643412  1.0000
  H   H360      1.0  0.7467428246987312  0.31455779214689744  0.47200502596137406  1.0000
  O   O46       1.0  0.317817603290188  0.4343862814925728  0.10647861275067667  1.0000
  C   C136      1.0  0.34982686762621684  0.39637487354966916  0.08203798519901398  1.0000
  C   C137      1.0  0.4060803993468684  0.42112107139229743  0.07418339203259075  1.0000
  C   C138      1.0  0.4412369087707186  0.37924362235859915  0.04363463864731634  1.0000
  H   H361      1.0  0.33051967893211837  0.4341276656144193  0.14295005289443977  1.0000
  H   H362      1.0  0.34978413158754557  0.36105155325411903  0.10713356136078646  1.0000
  H   H363      1.0  0.3344364574135338  0.3819070240279954  0.045128116456398845  1.0000
  H   H364      1.0  0.40537341510958674  0.4605792492572485  0.056729563055304126  1.0000
  H   H365      1.0  0.419984678616243  0.4248465045181217  0.11338956170545385  1.0000
  H   H366      1.0  0.42613791548605107  0.36517541378575885  0.004799713732386916  1.0000
  H   H367      1.0  0.4818929100567294  0.39492006450156125  0.03522401653163407  1.0000
  H   H368      1.0  0.4458367819487666  0.3444200145843069  0.06959844042362336  1.0000
  O   O47       1.0  0.08266021785041706  0.48882131184364497  0.7125309078155236  1.0000
  C   C139      1.0  0.0296317860460453  0.4986278193705321  0.6952337559100171  1.0000
  C   C140      1.0  0.022737488714631538  0.5579933111831296  0.6925804784976074  1.0000
  C   C141      1.0  0.025187193490537885  0.5864936858643028  0.7488380679530224  1.0000
  H   H369      1.0  0.10387412954909457  0.4828800489702441  0.6788767972529023  1.0000
  H   H370      1.0  0.024742140505487016  0.48342026050755904  0.6555753593519952  1.0000
  H   H371      1.0  0.0024700188975457357  0.4786480777401193  0.7226100239441372  1.0000
  H   H372      1.0  0.054740979973636354  0.5707714360510137  0.668100935261571  1.0000
  H   H373      1.0  0.9853133131247656  0.5656671858454352  0.6700994819608479  1.0000
  H   H374      1.0  0.985837180798316  0.5742924412549375  0.7675840753091244  1.0000
  H   H375      1.0  0.058573945257614356  0.5703041070762859  0.7730984322780105  1.0000
  H   H376      1.0  0.026919651797265513  0.6300037896296811  0.7454644585230001  1.0000
  O   O48       1.0  0.49161838217501375  0.4251695848988255  0.6756063310269604  1.0000
  C   C142      1.0  0.43608468981804294  0.4286206654518629  0.6645058721237753  1.0000
  C   C143      1.0  0.41996571879588773  0.3903185606747856  0.6206859220380687  1.0000
  C   C144      1.0  0.42398173424068614  0.32852094256704195  0.6401033825074223  1.0000
  H   H377      1.0  0.49310447534421126  0.42036797609893417  0.7130336537967042  1.0000
  H   H378      1.0  0.4139329924735209  0.4164887009477641  0.699523138222117  1.0000
  H   H379      1.0  0.4270114831551223  0.46607161254823437  0.6519031658534273  1.0000
  H   H380      1.0  0.3786717095944851  0.3976721239975334  0.6097244026770152  1.0000
  H   H381      1.0  0.4471569740059054  0.397157394875484  0.5889716957756204  1.0000
  H   H382      1.0  0.4626935286753614  0.3109336819106265  0.6503079385061484  1.0000
  H   H383      1.0  0.39706350434048227  0.32067460642365625  0.6742434784793723  1.0000
  H   H384      1.0  0.4125712019748845  0.30174043906357406  0.606177460178005  1.0000
  O   O49       1.0  0.7799920230347378  0.2305871275623516  0.2010853938041805  1.0000
  C   C145      1.0  0.7563167673625062  0.2180084440360967  0.15165600215505712  1.0000
  C   C146      1.0  0.7749534131006165  0.16456569107049893  0.13100703528869603  1.0000
  C   C147      1.0  0.7578023297060388  0.11659401866651761  0.16690290335104688  1.0000
  H   H385      1.0  0.7559305123657365  0.25199568368818637  0.22386173180027488  1.0000
  H   H386      1.0  0.7131162443058126  0.21564366420935718  0.15785709405200726  1.0000
  H   H387      1.0  0.7671698348652092  0.24821642285184098  0.12152325704209166  1.0000
  H   H388      1.0  0.7535438899575407  0.1563295257042007  0.09434348198083346  1.0000
  H   H389      1.0  0.8177227836474767  0.16583173334311777  0.12228812672465779  1.0000
  H   H390      1.0  0.7597921549595245  0.08018281471060851  0.13975078172237992  1.0000
  H   H391      1.0  0.786426931111929  0.11310623122054311  0.19834450232352446  1.0000
  H   H392      1.0  0.7215361994102618  0.11924238504687809  0.18976539614183707  1.0000
  O   O50       1.0  0.904605493016652  0.0035135064464614798  0.6522235161599629  1.0000
  C   C148      1.0  0.894131854927676  0.057247529617475326  0.6684518491977319  1.0000
  C   C149      1.0  0.8519464558340206  0.0592470528769267  0.7099756923928343  1.0000
  C   C150      1.0  0.8479720384330975  0.11046840660050096  0.7378536447568051  1.0000
  H   H393      1.0  0.903922094934265  0.0021599598493293546  0.6129529674733272  1.0000
  H   H394      1.0  0.9286372742674472  0.07532536384602544  0.6835020013521498  1.0000
  H   H395      1.0  0.8765518942176125  0.07720083573215925  0.634490850226483  1.0000
  H   H396      1.0  0.8136691889265889  0.04905599138113065  0.6934510508784891  1.0000
  H   H397      1.0  0.8561079711899718  0.020931424968119342  0.7336115110979607  1.0000
  H   H398      1.0  0.8199065328366555  0.11304867778981298  0.7705256220720498  1.0000
  H   H399      1.0  0.8876723749901047  0.12099123652252562  0.7518716845388004  1.0000
  H   H400      1.0  0.8360393828624284  0.14277223544204537  0.7099451287632088  1.0000
  O   O51       1.0  0.12314485787603291  0.09778191615913778  0.3670374480289401  1.0000
  C   C151      1.0  0.14333588164018862  0.0446985898238265  0.36917884011342395  1.0000
  C   C152      1.0  0.10040251538695186  0.007076494194948255  0.3488832989627928  1.0000
  C   C153      1.0  0.08079373779318484  0.01844680061115851  0.29514023704345527  1.0000
  H   H401      1.0  0.14053643153982825  0.11560594096693956  0.3991108166217871  1.0000
  H   H402      1.0  0.17818543585487814  0.04512953397961607  0.34601084303695684  1.0000
  H   H403      1.0  0.15380910222583288  0.0317627687784103  0.41040573028633015  1.0000
  H   H404      1.0  0.11300315481699594  0.9661121305147373  0.3506740053462703  1.0000
  H   H405      1.0  0.06808330055357288  0.01150051457199497  0.3744149764405588  1.0000
  H   H406      1.0  0.04690447941350479  0.9915004691581205  0.28827199589617175  1.0000
  H   H407      1.0  0.06743897004724782  0.06006623815247883  0.2884950993385396  1.0000
  H   H408      1.0  0.11027347787345587  0.01570238222140382  0.2646309440849971  1.0000
  O   O52       1.0  0.35469745314562023  0.8248878072370236  0.45562042341460113  1.0000
  C   C154      1.0  0.3072225067223962  0.7940974311544468  0.468254754965904  1.0000
  C   C155      1.0  0.30797990627629984  0.7436630211110273  0.43412580752578145  1.0000
  C   C156      1.0  0.25151443833335213  0.7233635741173211  0.4283350124555604  1.0000
  H   H409      1.0  0.3854086519082322  0.8111845812697612  0.4786808787899813  1.0000
  H   H410      1.0  0.3051325343482642  0.7811000518272923  0.5106520902818557  1.0000
  H   H411      1.0  0.2729713807096161  0.8186601712734782  0.45957148210054  1.0000
  H   H412      1.0  0.32742209089534396  0.751855985618278  0.3957439568289634  1.0000
  H   H413      1.0  0.33452181577092127  0.7136631295344816  0.4534885492132171  1.0000
  H   H414      1.0  0.2313363360985064  0.7241432138749018  0.46730053082220646  1.0000
  H   H415      1.0  0.23114593907191194  0.75050473687996  0.4016206037057479  1.0000
  H   H416      1.0  0.25216605924309593  0.6842884662951507  0.4130032646419813  1.0000
  O   O53       1.0  0.09080282469626784  0.14553378419231736  0.8641205873793927  1.0000
  C   C157      1.0  0.08265105067011608  0.11737504214942672  0.8154393803892054  1.0000
  C   C158      1.0  0.051425402711498265  0.1485799052016957  0.7766199305334881  1.0000
  C   C159      1.0  0.9959990385324818  0.17059297593277387  0.796296348438483  1.0000
  H   H417      1.0  0.06058574033166684  0.16740657857535743  0.8724367929058751  1.0000
  H   H418      1.0  0.11576172656970064  0.10003409215629709  0.7984047875814164  1.0000
  H   H419      1.0  0.062360680994088924  0.0776793700986919  0.8231450703958877  1.0000
  H   H420      1.0  0.07487932276975584  0.1796905651878973  0.7616765618145822  1.0000
  H   H421      1.0  0.045457686031746346  0.11993142340046753  0.7438751466015006  1.0000
  H   H422      1.0  0.9801131250273705  0.18822644227935956  0.7589737609521917  1.0000
  H   H423      1.0  0.9704888811645509  0.13719722517959582  0.8146034671468235  1.0000
  H   H424      1.0  0.006179883125313932  0.2077414716868798  0.8225653463432457  1.0000
  O   O54       1.0  0.6678531649271124  0.5092427859159425  0.19739844971408693  1.0000
  C   C160      1.0  0.6629089004078136  0.5406091320997748  0.24530794275042106  1.0000
  C   C161      1.0  0.6435154431990642  0.5969843497391522  0.23516309211388411  1.0000
  C   C162      1.0  0.6128161890079656  0.6197930907652655  0.28456662241376546  1.0000
  H   H425      1.0  0.7016515996319799  0.4876745665754494  0.19900169749918187  1.0000
  H   H426      1.0  0.6384873750252613  0.5207030316951463  0.2768291743203064  1.0000
  H   H427      1.0  0.7026715014236232  0.5431251002211582  0.25951241725358026  1.0000
  H   H428      1.0  0.6741317657211889  0.6255090692384173  0.22384775856019087  1.0000
  H   H429      1.0  0.614234594548891  0.5948184613425104  0.2027772608464959  1.0000
  H   H430      1.0  0.6052889896280975  0.6625640537891201  0.2897127931348403  1.0000
  H   H431      1.0  0.5748056912223254  0.5982359062366444  0.2869321990754355  1.0000
  H   H432      1.0  0.6365433574421029  0.6102922199322548  0.32008001766191113  1.0000
  O   O55       1.0  0.4029127725416301  0.6428427387686837  0.5063671446384956  1.0000
  C   C163      1.0  0.4494739747513469  0.6197489137436659  0.5256486612515292  1.0000
  C   C164      1.0  0.43864832330076925  0.5636762611665092  0.5422876322758929  1.0000
  C   C165      1.0  0.3892044649623858  0.5523684923755668  0.5757318921447663  1.0000
  H   H433      1.0  0.38889116847404753  0.6113850802323295  0.4875992569268264  1.0000
  H   H434      1.0  0.4801800541278659  0.6160201815462755  0.4964023202457897  1.0000
  H   H435      1.0  0.464583623516288  0.6427920013780629  0.5613412103603534  1.0000
  H   H436      1.0  0.4462906867996973  0.5398227804791067  0.5058521880765361  1.0000
  H   H437      1.0  0.4724452414744864  0.5487700542203608  0.5642981526580467  1.0000
  H   H438      1.0  0.38972765031620527  0.5097800391439345  0.5885008025153052  1.0000
  H   H439      1.0  0.3939862793328804  0.5678304960595972  0.6153026551510533  1.0000
  H   H440      1.0  0.3523843204691428  0.5676128718514323  0.5599705846959706  1.0000
  O   O56       1.0  0.5956184259575305  0.9659161775128513  0.47748502717751456  1.0000
  C   C166      1.0  0.5855269099799607  0.9876654088026611  0.5287230042932746  1.0000
  C   C167      1.0  0.5677982258354001  0.045617254214694064  0.5254614869530345  1.0000
  C   C168      1.0  0.6107991751422649  0.07607808497687892  0.4950102691056602  1.0000
  H   H441      1.0  0.6155090171074358  0.9338140656049059  0.4899625206200379  1.0000
  H   H442      1.0  0.5559070549862734  0.9646669912414174  0.5514260235352056  1.0000
  H   H443      1.0  0.6201615990870755  0.9869420807016149  0.5499560467898623  1.0000
  H   H444      1.0  0.5286641522283713  0.04404896895385346  0.5059000053295672  1.0000
  H   H445      1.0  0.5633679699466865  0.06280515822216405  0.5644388747405943  1.0000
  H   H446      1.0  0.6508029491446452  0.07206811736605918  0.5136621966585834  1.0000
  H   H447      1.0  0.6147671458941217  0.06258588467702712  0.4517998866083793  1.0000
  H   H448      1.0  0.6044862185954429  0.11926825593905344  0.4951831095207166  1.0000
  O   O57       1.0  0.3378622829912159  0.7635308599198352  0.7868527749674922  1.0000
  C   C169      1.0  0.37594581523113163  0.7990757480407363  0.8124966204808844  1.0000
  C   C170      1.0  0.38277069487999055  0.7892478154357249  0.8747945956555058  1.0000
  C   C171      1.0  0.33250104795383384  0.8033509483610863  0.9040576216848754  1.0000
  H   H449      1.0  0.34283859029480157  0.7262307969371088  0.8033036237619866  1.0000
  H   H450      1.0  0.4144819632307382  0.7879316051675054  0.7930754056625219  1.0000
  H   H451      1.0  0.36866642435745534  0.8422100626238193  0.8070847995469476  1.0000
  H   H452      1.0  0.39412074443216116  0.7478675381172935  0.8850297152838575  1.0000
  H   H453      1.0  0.41442883692581467  0.8137256902489227  0.8891846328942988  1.0000
  H   H454      1.0  0.3039235055353996  0.770428546185437  0.8963754422848655  1.0000
  H   H455      1.0  0.3400513030605538  0.803363082598399  0.946335091396628  1.0000
  H   H456      1.0  0.31485912537547794  0.8395851499901537  0.8907261653368782  1.0000
  O   O58       1.0  0.7653789392135545  0.24093365696075433  0.770845896035119  1.0000
  C   C172      1.0  0.7379460183630345  0.19462830278091198  0.7820571579368464  1.0000
  C   C173      1.0  0.7415277341181219  0.18183330322359856  0.8444117099820235  1.0000
  C   C174      1.0  0.7979765925856616  0.1851242847680235  0.8670857202972125  1.0000
  H   H457      1.0  0.7537399375935152  0.25018448186733677  0.7338677758359227  1.0000
  H   H458      1.0  0.6947746179530382  0.1940677473002911  0.7693897597240379  1.0000
  H   H459      1.0  0.7560508710214893  0.16284949829595832  0.7560470788983693  1.0000
  H   H460      1.0  0.7168763361725146  0.20622720380235957  0.8658739423243133  1.0000
  H   H461      1.0  0.7285362702167466  0.14121666295884877  0.850556376502484  1.0000
  H   H462      1.0  0.8300576213705926  0.15688587195599193  0.8548371133146366  1.0000
  H   H463      1.0  0.811256553675085  0.22687944111148686  0.8603181006338849  1.0000
  H   H464      1.0  0.7985115710169283  0.18007803372768483  0.9111757759527653  1.0000
  O   O59       1.0  0.14090710133603063  0.47680803757246043  0.6260604670816705  1.0000
  C   C175      1.0  0.19210740493923475  0.45746235984263117  0.6360422039379168  1.0000
  C   C176      1.0  0.21064031978762257  0.42363487803928856  0.5904984390573188  1.0000
  C   C177      1.0  0.2608277368480251  0.39408365860524763  0.608185031708828  1.0000
  H   H465      1.0  0.1426906405789779  0.5057549229217461  0.6005944676494726  1.0000
  H   H466      1.0  0.22095736629359602  0.4905013667226465  0.6380595589634829  1.0000
  H   H467      1.0  0.18955182927081335  0.43288354147147856  0.67431150726751  1.0000
  H   H468      1.0  0.17919911923261023  0.39499325044990286  0.5850410382905873  1.0000
  H   H469      1.0  0.2134578104057637  0.44824570102299477  0.5532524125367794  1.0000
  H   H470      1.0  0.248146270363422  0.3572137246527582  0.6284693865535209  1.0000
  H   H471      1.0  0.2924504237156634  0.385052960541088  0.5777579312396351  1.0000
  H   H472      1.0  0.28140015229156756  0.41379845142839594  0.6431528499054111  1.0000
  O   O60       1.0  0.7391427045845428  0.3630739139458231  0.9353744821928378  1.0000
  C   C178      1.0  0.6997534656649927  0.3815453031174948  0.9695832137244342  1.0000
  C   C179      1.0  0.7243632265997472  0.4175181587942405  0.009847954347537602  1.0000
  C   C180      1.0  0.746452962473599  0.47138931550725904  0.9881004105664332  1.0000
  H   H473      1.0  0.7662811368753913  0.3436088254916154  0.9546090535383704  1.0000
  H   H474      1.0  0.6696510376558757  0.403819482818051  0.9499868077484458  1.0000
  H   H475      1.0  0.6801955105530018  0.3487367374003102  0.9915168697550817  1.0000
  H   H476      1.0  0.6939731364092457  0.4248155237827867  0.03949609817412525  1.0000
  H   H477      1.0  0.7544989483126576  0.39460506141865115  0.03056148989347074  1.0000
  H   H478      1.0  0.7277331198524934  0.4779029456269724  0.9505626637321237  1.0000
  H   H479      1.0  0.7326547083741611  0.5043748545248632  0.01555638674618276  1.0000
  H   H480      1.0  0.7915001242387059  0.47217957257338  0.9858561408895126  1.0000
  O   O61       1.0  0.35835997686939997  0.43493146052429243  0.20903411448844916  1.0000
  C   C181      1.0  0.3208417210787329  0.44833951561215235  0.2510425211958184  1.0000
  C   C182      1.0  0.30277065517562557  0.39977881916940633  0.2846324328675331  1.0000
  C   C183      1.0  0.2721122415580717  0.3611391108600099  0.24591559539023122  1.0000
  H   H481      1.0  0.3905897660676947  0.42168206306449446  0.22724294456240343  1.0000
  H   H482      1.0  0.33699990162808297  0.4791986413719532  0.2773351434272089  1.0000
  H   H483      1.0  0.28518786935968315  0.4658828079986343  0.23565068908607364  1.0000
  H   H484      1.0  0.3368833728695611  0.38089800515653577  0.30259760640652544  1.0000
  H   H485      1.0  0.2813807371937695  0.412359682858298  0.319458429556128  1.0000
  H   H486      1.0  0.2986678781646224  0.3469250993878844  0.21659599209268368  1.0000
  H   H487      1.0  0.2606123118883635  0.3291373357385101  0.272329315457083  1.0000
  H   H488      1.0  0.23510041015174987  0.381448227230882  0.23084904251207133  1.0000
  O   O62       1.0  0.2725141767871192  0.5111855140102389  0.0401369494860182  1.0000
  C   C184      1.0  0.29416587691287327  0.5090350207507428  0.9879085343851773  1.0000
  C   C185      1.0  0.26757013970773075  0.4678047937321594  0.9517393280843248  1.0000
  C   C186      1.0  0.2136705995277235  0.49180396359889184  0.930608063357111  1.0000
  H   H489      1.0  0.2909741140412091  0.4846242271919303  0.06216919833205092  1.0000
  H   H490      1.0  0.2891718992777944  0.5485041197076109  0.9691177810100775  1.0000
  H   H491      1.0  0.336699801028387  0.5011007476698676  0.9897156597830191  1.0000
  H   H492      1.0  0.2916565641922218  0.4611770993164488  0.9166353763656225  1.0000
  H   H493      1.0  0.258070444643627  0.4285735305185627  0.9714607949964496  1.0000
  H   H494      1.0  0.1889110916788756  0.4584145744036247  0.9160790110279645  1.0000
  H   H495      1.0  0.19098610431219376  0.5125431334517789  0.9606534592182294  1.0000
  H   H496      1.0  0.2235974851938523  0.5192449995213165  0.8998226925430499  1.0000
  O   O63       1.0  0.8090614285141687  0.5676361927923055  0.2046370576694406  1.0000
  C   C187      1.0  0.7806079991004962  0.583339823945105  0.15663150347840113  1.0000
  C   C188      1.0  0.8195754133298911  0.600619911893005  0.11481384489804734  1.0000
  C   C189      1.0  0.8758684961352252  0.5698878948237776  0.11530541411622287  1.0000
  H   H497      1.0  0.8064797449707283  0.5961140811416471  0.23187353286414303  1.0000
  H   H498      1.0  0.7622242053088263  0.5491495218058211  0.13735952343671165  1.0000
  H   H499      1.0  0.7515574778931986  0.6173147774681935  0.15947767100872992  1.0000
  H   H500      1.0  0.8035098338266808  0.5990984013197326  0.07355021005809301  1.0000
  H   H501      1.0  0.8328869997002696  0.6425336888856639  0.1248242491235479  1.0000
  H   H502      1.0  0.8755303236055082  0.5290050548322566  0.12706132382638277  1.0000
  H   H503      1.0  0.8911003616445571  0.5711982278379512  0.07566043174144241  1.0000
  H   H504      1.0  0.9048392332510491  0.5897820884310035  0.14272688304916106  1.0000
  O   O64       1.0  0.6514419805396333  0.5126003170938437  0.5612742436211677  1.0000
  C   C190      1.0  0.645374064253102  0.5244876202716285  0.5052436065912181  1.0000
  C   C191      1.0  0.5843550238539872  0.529140543808756  0.48970697597591795  1.0000
  C   C192      1.0  0.573441928915096  0.5406853896797722  0.43173417984907003  1.0000
  H   H505      1.0  0.6355419228168832  0.5377705766492413  0.5846895939263838  1.0000
  H   H506      1.0  0.6598449472346983  0.5648701031962717  0.5009436065729558  1.0000
  H   H507      1.0  0.6653830422501671  0.4971467696415835  0.48041838292269107  1.0000
  H   H508      1.0  0.5595884625845642  0.496718764311628  0.5051032260661582  1.0000
  H   H509      1.0  0.5696244251711745  0.5627118364223587  0.5144838897374822  1.0000
  H   H510      1.0  0.604815972667501  0.5659753633453027  0.41639659255555594  1.0000
  H   H511      1.0  0.5798393714361528  0.5030875772375415  0.4108578529944672  1.0000
  H   H512      1.0  0.5322354777172064  0.5543745096011287  0.4254486775261067  1.0000
  O   O65       1.0  0.4010729598138815  0.029305475382419628  0.7800749165319785  1.0000
  C   C193      1.0  0.35211049872202066  0.022181346045417338  0.7563715243161573  1.0000
  C   C194      1.0  0.3150369332849391  0.9933898439052052  0.7951677669509566  1.0000
  C   C195      1.0  0.2962467298213708  0.03246931960747122  0.8410134523481552  1.0000
  H   H513      1.0  0.39216345501451627  0.05590453790219483  0.8049134883784583  1.0000
  H   H514      1.0  0.33575077181900437  0.0626785899001887  0.7492431316737034  1.0000
  H   H515      1.0  0.35768749987892984  0.9992138193568869  0.7202045932096522  1.0000
  H   H516      1.0  0.2801768082835091  0.9842986631274148  0.7727002700862161  1.0000
  H   H517      1.0  0.32987647648003376  0.9578587966161886  0.8099903976825109  1.0000
  H   H518      1.0  0.26692414992387825  0.01004721092161506  0.8661503044798041  1.0000
  H   H519      1.0  0.3297830030507416  0.0404565126273374  0.8654692575376087  1.0000
  H   H520      1.0  0.2815272605845188  0.07205446619997405  0.827574378353227  1.0000
  O   O66       1.0  0.3587803979531156  0.9238575076513897  0.12079815634118511  1.0000
  C   C196      1.0  0.4143070372871336  0.9207677690748766  0.12562273498152868  1.0000
  C   C197      1.0  0.42905860577062777  0.944669635615086  0.17768742992819203  1.0000
  C   C198      1.0  0.40432291151658467  0.9144162853205907  0.22627635834386062  1.0000
  H   H521      1.0  0.3513253984184815  0.9608327458847298  0.13238873393668432  1.0000
  H   H522      1.0  0.4282245128427727  0.8776731948446534  0.13144047293343236  1.0000
  H   H523      1.0  0.4381839904094753  0.9412763836473553  0.09415529374567567  1.0000
  H   H524      1.0  0.4705444911532863  0.9379522980649362  0.18384912263214795  1.0000
  H   H525      1.0  0.42125629515477553  0.9870553297452787  0.17741713469254636  1.0000
  H   H526      1.0  0.40701551177852235  0.9391916821533826  0.2620693014967304  1.0000
  H   H527      1.0  0.36191200058276995  0.9049808273191269  0.21799230932162034  1.0000
  H   H528      1.0  0.42813134279923504  0.8788987758753263  0.22941516588815616  1.0000
  O   O67       1.0  0.32277735797834317  0.9088276807520337  0.015643721810410932  1.0000
  C   C199      1.0  0.2703998973690063  0.925005959116535  0.02819852533895018  1.0000
  C   C200      1.0  0.22936571758877522  0.9100824603752478  0.9847353143549397  1.0000
  C   C201      1.0  0.16993198863399647  0.9133986587232948  0.0014990938253293504  1.0000
  H   H529      1.0  0.3451942315700401  0.9216915810830149  0.044395588172407414  1.0000
  H   H530      1.0  0.2597783708521968  0.9034910939184978  0.06366112156503077  1.0000
  H   H531      1.0  0.26656115861038204  0.968394870014741  0.03440944089048788  1.0000
  H   H532      1.0  0.23796552835712284  0.9361826378256066  0.9484918413685495  1.0000
  H   H533      1.0  0.24274925767623284  0.8700086102279149  0.9699448206441385  1.0000
  H   H534      1.0  0.14787456075845273  0.8915792180850886  0.9710761703775662  1.0000
  H   H535      1.0  0.16458262261990578  0.897168581316843  0.04183513526982543  1.0000
  H   H536      1.0  0.155386687075174  0.9541570445501886  0.002063031082938249  1.0000
  O   O68       1.0  0.1200251811296476  0.5727430971262079  0.564213894123722  1.0000
  C   C202      1.0  0.09694915049425581  0.5622065878069203  0.5123881534316371  1.0000
  C   C203      1.0  0.09308696753186986  0.501013986501285  0.4989373996815946  1.0000
  C   C204      1.0  0.05315124140349371  0.48787982870876906  0.4514353215061331  1.0000
  H   H537      1.0  0.13424402768797825  0.6093941177792924  0.5633097246532921  1.0000
  H   H538      1.0  0.06059396435206003  0.5860816828406242  0.5095378808495007  1.0000
  H   H539      1.0  0.12211122897246014  0.578468214548483  0.483566556458398  1.0000
  H   H540      1.0  0.13046487102865473  0.48455407470351136  0.4866145828734585  1.0000
  H   H541      1.0  0.08179071706142034  0.47877435221927345  0.5334068326198929  1.0000
  H   H542      1.0  0.01867163887927578  0.5074990629716992  0.4615853483887407  1.0000
  H   H543      1.0  0.06453839149460004  0.5030212168722424  0.4105593830434988  1.0000
  H   H544      1.0  0.04798621981055215  0.44422934402070874  0.4446248520841789  1.0000
  O   O69       1.0  0.5666447691017392  0.361761343511413  0.6075185083158702  1.0000
  C   C205      1.0  0.5989831238783395  0.3846464936115898  0.5688262808706814  1.0000
  C   C206      1.0  0.6206329476248336  0.3428702155757566  0.5276175544784443  1.0000
  C   C207      1.0  0.5731674244506207  0.3130692345151753  0.5022363066321249  1.0000
  H   H545      1.0  0.5445356559042003  0.3905534007322453  0.6213396284763607  1.0000
  H   H546      1.0  0.5753204199467524  0.4123242276801121  0.5489300776807514  1.0000
  H   H547      1.0  0.6300907408616853  0.4076216284036934  0.5903063354361526  1.0000
  H   H548      1.0  0.647299197564127  0.3651245249010719  0.4979784736551359  1.0000
  H   H549      1.0  0.643976477018792  0.30886117191156615  0.5453551497345956  1.0000
  H   H550      1.0  0.5522529497201527  0.34142473514257127  0.47776772226211645  1.0000
  H   H551      1.0  0.588433721658542  0.2838060188200065  0.4750878630090005  1.0000
  H   H552      1.0  0.5446447523081706  0.2940065934274356  0.5316856345768366  1.0000
  O   O70       1.0  0.9609383157772237  0.9942276907844471  0.030429617417850604  1.0000
  C   C208      1.0  0.9071150522630804  0.9821613852400497  0.020254615485931188  1.0000
  C   C209      1.0  0.8707945443452512  0.0277941868812  0.03619041308437755  1.0000
  C   C210      1.0  0.8803559738377369  0.07717928778876866  0.0004518296605602741  1.0000
  H   H553      1.0  0.9606322238059044  0.9932484013311935  0.0690892243336657  1.0000
  H   H554      1.0  0.9052858572414944  0.9742309420564054  0.9755732228231551  1.0000
  H   H555      1.0  0.8933974164665358  0.9477206387568724  0.04132871525932456  1.0000
  H   H556      1.0  0.8289184981227479  0.01601891853559733  0.027965372790195592  1.0000
  H   H557      1.0  0.8796622614349418  0.03686043475763412  0.0775552666368634  1.0000
  H   H558      1.0  0.9204069960957504  0.09593585599105568  0.0036208541079046875  1.0000
  H   H559      1.0  0.8813348461852807  0.06149947062839627  0.9575283220526665  1.0000
  H   H560      1.0  0.8461982826848935  0.10634381603446372  0.0011312706066058068  1.0000
  O   O71       1.0  0.12223047865983912  0.6915971317072126  0.5593004966198031  1.0000
  C   C211      1.0  0.08863080257924773  0.7322602623596427  0.5797114285341601  1.0000
  C   C212      1.0  0.03778221849482401  0.7288098263522251  0.5463889683039679  1.0000
  C   C213      1.0  0.9976134917093816  0.6860222542505847  0.5642201129352555  1.0000
  H   H561      1.0  0.11544796565860845  0.6971527459577306  0.5203349023073128  1.0000
  H   H562      1.0  0.08036189302306512  0.7263205164150143  0.622479813375535  1.0000
  H   H563      1.0  0.1056557633863597  0.770618526503944  0.5739142627607172  1.0000
  H   H564      1.0  0.015536694632477704  0.7650569968276468  0.554963979374403  1.0000
  H   H565      1.0  0.04876898766214398  0.727769523359676  0.5041946958728326  1.0000
  H   H566      1.0  0.9860976925392184  0.6903676066617316  0.6054012713836789  1.0000
  H   H567      1.0  0.9632337969372332  0.6894571424339238  0.5409025963846052  1.0000
  H   H568      1.0  0.010301734869494183  0.6445921496987961  0.5528383239845525  1.0000
  O   O72       1.0  0.8192119102765969  0.6637699922820846  0.267674363251385  1.0000
  C   C214      1.0  0.7679668419661507  0.685491067942438  0.28135510288681553  1.0000
  C   C215      1.0  0.7645972520991589  0.7479328368312629  0.280384118171266  1.0000
  C   C216      1.0  0.7652054164787672  0.7719419416868047  0.22271333759272952  1.0000
  H   H569      1.0  0.8410781442906157  0.6617166130809343  0.29992684793079954  1.0000
  H   H570      1.0  0.7384476271446635  0.6689211495834306  0.2540684024389126  1.0000
  H   H571      1.0  0.7542276673715265  0.6743754409443953  0.31986876415696813  1.0000
  H   H572      1.0  0.7249860282485483  0.7556247237801716  0.29749891177861637  1.0000
  H   H573      1.0  0.7982733563396804  0.7673529136548295  0.3006297183685846  1.0000
  H   H574      1.0  0.8062830905632449  0.7758991432384329  0.20849917422891567  1.0000
  H   H575      1.0  0.7407096434965438  0.7534862514356554  0.19350770355946847  1.0000
  H   H576      1.0  0.7459592413239645  0.8100029116490446  0.22340737206952355  1.0000
  O   O73       1.0  0.9293591236114541  0.1932886383683753  0.6485328177208605  1.0000
  C   C217      1.0  0.8993781918552638  0.19011623373453168  0.6019087820549432  1.0000
  C   C218      1.0  0.8956115773936515  0.24822952450401692  0.5783695084107647  1.0000
  C   C219      1.0  0.8767911705461898  0.2468201819663707  0.5224068623948418  1.0000
  H   H577      1.0  0.9053638214160634  0.19977485243596318  0.6778284551342926  1.0000
  H   H578      1.0  0.9245214146901346  0.1676364129666793  0.5725983936523632  1.0000
  H   H579      1.0  0.8617929693254109  0.1681699881891287  0.6049626483475609  1.0000
  H   H580      1.0  0.8676698432444835  0.2752540634764232  0.600817665725929  1.0000
  H   H581      1.0  0.9346273023252536  0.26719179063357773  0.5767429587706632  1.0000
  H   H582      1.0  0.9118803335016333  0.2380601584694554  0.497923754873218  1.0000
  H   H583      1.0  0.8486895648283197  0.2136449278442808  0.5159331241220543  1.0000
  H   H584      1.0  0.8554386036052685  0.2804555788367915  0.5060332572834523  1.0000
  O   O74       1.0  0.2918246832410282  0.8145520474364717  0.6949543594993592  1.0000
  C   C220      1.0  0.25950881479625965  0.8619422231879506  0.7051184168796507  1.0000
  C   C221      1.0  0.20797695589233725  0.8453393900591261  0.7397605005672059  1.0000
  C   C222      1.0  0.22318978603309175  0.8334380563836572  0.7992316759922525  1.0000
  H   H585      1.0  0.3047241150936618  0.7998690385667799  0.7289323846541036  1.0000
  H   H586      1.0  0.2818649782344153  0.8964402097755481  0.7199493901230201  1.0000
  H   H587      1.0  0.24140593434402016  0.8732228789148996  0.6687910074329345  1.0000
  H   H588      1.0  0.17850468633835095  0.8769643143470007  0.7408337942754165  1.0000
  H   H589      1.0  0.18981491998943997  0.8096043701256516  0.7224242906285708  1.0000
  H   H590      1.0  0.2534608448308133  0.8585046045328211  0.8149582487543263  1.0000
  H   H591      1.0  0.18624848604916538  0.8390930972633576  0.8253769020521189  1.0000
  H   H592      1.0  0.22897275072891823  0.7878617560648408  0.8020345102553343  1.0000
  O   O75       1.0  0.8146478338342223  0.4062743992284057  0.8497670295936266  1.0000
  C   C223      1.0  0.7872707315886831  0.3884705195527994  0.8043507527352007  1.0000
  C   C224      1.0  0.727269128121065  0.3939215118421979  0.8122290553194069  1.0000
  C   C225      1.0  0.691081492825522  0.3817892439523446  0.7624653778977749  1.0000
  H   H593      1.0  0.7934737952942263  0.391500647401212  0.8804356060375224  1.0000
  H   H594      1.0  0.8019657987498435  0.4114995007436684  0.7706032065173981  1.0000
  H   H595      1.0  0.7962764780632419  0.3469210420507432  0.7967092234476919  1.0000
  H   H596      1.0  0.712435879683348  0.3659144789790605  0.8443662816432951  1.0000
  H   H597      1.0  0.7196192567193633  0.435539927892033  0.824457792324364  1.0000
  H   H598      1.0  0.7013790292019866  0.3409950991638882  0.7492033153749995  1.0000
  H   H599      1.0  0.6500117059754166  0.3829570727411769  0.7719287454005401  1.0000
  H   H600      1.0  0.7006109932536762  0.4103598466701589  0.730633030002188  1.0000
  O   O76       1.0  0.45078582429667075  0.4248828702511933  0.7928261939475129  1.0000
  C   C226      1.0  0.4167167909704032  0.4655281401110865  0.8145305845842364  1.0000
  C   C227      1.0  0.4108545539229011  0.465485328126571  0.8742106245999232  1.0000
  C   C228      1.0  0.4631012846960995  0.47551063563053003  0.9078739874340009  1.0000
  H   H601      1.0  0.43676437172315424  0.39044563159124807  0.8033613382297162  1.0000
  H   H602      1.0  0.43364471406263555  0.5049263283139606  0.8023462902125222  1.0000
  H   H603      1.0  0.37656922365144163  0.45839807904579405  0.8030940009057713  1.0000
  H   H604      1.0  0.3849057544329855  0.49717596823412485  0.889498536154146  1.0000
  H   H605      1.0  0.3932907847872915  0.4280044997203051  0.889744486969322  1.0000
  H   H606      1.0  0.49483947644504095  0.45159299382633195  0.8915078524512738  1.0000
  H   H607      1.0  0.47947853043654276  0.5165084874518006  0.9033685356166195  1.0000
  H   H608      1.0  0.45819653308975006  0.4688392572447737  0.9512735919842137  1.0000
  O   O77       1.0  0.05094122330229665  0.8149388336565283  0.8856074679255287  1.0000
  C   C229      1.0  0.10731569221903228  0.7912694934100757  0.8837288246045616  1.0000
  C   C230      1.0  0.12036775255399364  0.7637262248384565  0.936145476052849  1.0000
  C   C231      1.0  0.18163226940497504  0.7544738452289906  0.9440955236024685  1.0000
  H   H609      1.0  0.049425969712291025  0.8521026871712912  0.8710466380261166  1.0000
  H   H610      1.0  0.10812815131709706  0.7630598151654538  0.8515340357046322  1.0000
  H   H611      1.0  0.1344129149429153  0.8231133691690885  0.8791057442055954  1.0000
  H   H612      1.0  0.10451558803011865  0.7906954573433025  0.9682675338842573  1.0000
  H   H613      1.0  0.09962198495559657  0.7288203681125436  0.9402587570500595  1.0000
  H   H614      1.0  0.20094580971642886  0.7448851893501788  0.9051713384632987  1.0000
  H   H615      1.0  0.20186708131619838  0.7852523904600094  0.9658781817995157  1.0000
  H   H616      1.0  0.18309642575624993  0.7161828516072519  0.9656695446487856  1.0000
  O   O78       1.0  0.9794356426416037  0.1417603536905958  0.31981844426967915  1.0000
  C   C232      1.0  0.008093158817311208  0.16514916947214994  0.3596881321067551  1.0000
  C   C233      1.0  0.966855309778377  0.18951955944423837  0.39758725829407743  1.0000
  C   C234      1.0  0.9290000190551665  0.14717090382391493  0.42638568582050956  1.0000
  H   H617      1.0  0.9631368537296612  0.11150779029047564  0.3371067228377059  1.0000
  H   H618      1.0  0.03022718543271785  0.1369670496284085  0.3822874017707191  1.0000
  H   H619      1.0  0.03198175352303401  0.19948258260828403  0.34513700975624206  1.0000
  H   H620      1.0  0.9914850170342164  0.20971650777948428  0.42525956959075223  1.0000
  H   H621      1.0  0.9444613022477326  0.22135598336521084  0.3747226990606057  1.0000
  H   H622      1.0  0.9482722829991216  0.13771601163878633  0.4658127692301705  1.0000
  H   H623      1.0  0.8900066671330631  0.16525018897594881  0.4379370542864361  1.0000
  H   H624      1.0  0.9215063030448912  0.11151144006484053  0.40325507835433266  1.0000
  O   O79       1.0  0.7358682943437926  0.44337905912077746  0.3234605663949309  1.0000
  C   C235      1.0  0.7235305746548203  0.48445476179428426  0.3603191243756828  1.0000
  C   C236      1.0  0.7688032860341976  0.49468146296497667  0.4032318333593037  1.0000
  C   C237      1.0  0.8207071042231845  0.5110243529526746  0.371567092772725  1.0000
  H   H625      1.0  0.7545417225230622  0.45916998266544645  0.29075626239313385  1.0000
  H   H626      1.0  0.7156608420223394  0.521300464648637  0.33842335060925716  1.0000
  H   H627      1.0  0.6866547634482849  0.47476675483451203  0.38146438142884714  1.0000
  H   H628      1.0  0.7547903274665622  0.5282264011777835  0.42939768845760834  1.0000
  H   H629      1.0  0.7711384123885751  0.45698100076784176  0.42695194837286576  1.0000
  H   H630      1.0  0.8168726124675006  0.5441166376316796  0.34197253052850385  1.0000
  H   H631      1.0  0.8546506976793393  0.5172079637863087  0.3966166906842376  1.0000
  H   H632      1.0  0.8314332904752245  0.4785759916148405  0.3448300457993925  1.0000
  O   O80       1.0  0.16286022972207595  0.8171854544736405  0.2602380964948181  1.0000
  C   C238      1.0  0.15006520193358486  0.8051690707966892  0.2054863564662642  1.0000
  C   C239      1.0  0.15040263488597128  0.8548378715802117  0.17208904186489166  1.0000
  C   C240      1.0  0.10480992469810166  0.8920473053253913  0.18528493368816742  1.0000
  H   H633      1.0  0.2028403034519844  0.8216460087779583  0.26025358666367454  1.0000
  H   H634      1.0  0.1820868378873923  0.7796237421528381  0.19094175671066144  1.0000
  H   H635      1.0  0.11157728829271914  0.7860097327563131  0.2005395137644856  1.0000
  H   H636      1.0  0.19101113184763874  0.8718090615367803  0.18194638141648822  1.0000
  H   H637      1.0  0.14801405975504908  0.8443288164847829  0.1291087021129763  1.0000
  H   H638      1.0  0.06996943308906904  0.8785532469369018  0.16440157249885615  1.0000
  H   H639      1.0  0.09744123145222953  0.8957214702349302  0.22808994907901292  1.0000
  H   H640      1.0  0.11368403117925861  0.9311480470568935  0.16850692808996132  1.0000
  O   O81       1.0  0.6108886667826378  0.7681004728540123  0.7106730450270611  1.0000
  C   C241      1.0  0.5967419258330748  0.7259504907668096  0.7405918630232706  1.0000
  C   C242      1.0  0.5760758286061964  0.7484925390145978  0.7948528016421575  1.0000
  C   C243      1.0  0.524614728962202  0.7806378044645466  0.7876567591455423  1.0000
  H   H641      1.0  0.6462567708712964  0.7772720822688967  0.7212665864943472  1.0000
  H   H642      1.0  0.5663415968703874  0.7017884914196743  0.7230387497655567  1.0000
  H   H643      1.0  0.6338617160461932  0.7014779250055042  0.7459900327911224  1.0000
  H   H644      1.0  0.5698732957263181  0.7148035418735663  0.8249779815947496  1.0000
  H   H645      1.0  0.6085979448897701  0.7713454566646885  0.8120899638855869  1.0000
  H   H646      1.0  0.5118413441488122  0.8007640317115977  0.8260201808476699  1.0000
  H   H647      1.0  0.527507244531456  0.8109092044221335  0.7565074303983662  1.0000
  H   H648      1.0  0.4937818820549751  0.7522217638659199  0.7807922154872903  1.0000
  O   O82       1.0  0.9953188448875723  0.918955789504963  0.6909749368299205  1.0000
  C   C244      1.0  0.9853885846016553  0.8646595853736896  0.6937353006659744  1.0000
  C   C245      1.0  0.036274093475993203  0.8303408095067483  0.7059220976719464  1.0000
  C   C246      1.0  0.018584031172985096  0.7719850192829637  0.7248930478708099  1.0000
  H   H649      1.0  0.9595470043412058  0.9349685842607375  0.6853439373825575  1.0000
  H   H650      1.0  0.9543243486002232  0.8507396071837926  0.7185879030101382  1.0000
  H   H651      1.0  0.9677959771192366  0.8510778552617317  0.6581415714148235  1.0000
  H   H652      1.0  0.06440662346684306  0.8282250135574853  0.6732577805487858  1.0000
  H   H653      1.0  0.05921544151274942  0.8481464713251483  0.7392426620393898  1.0000
  H   H654      1.0  0.9943103568417774  0.7491189049489864  0.6980117904751866  1.0000
  H   H655      1.0  0.05744798052192315  0.7516883023634257  0.7281007184146623  1.0000
  H   H656      1.0  0.0015482820797779028  0.7730322238043997  0.7659307541625174  1.0000
  O   O83       1.0  0.9832341857699255  0.5745780183053959  0.35004904222307687  1.0000
  C   C247      1.0  0.9724577929529294  0.5190753444578711  0.3419844754976394  1.0000
  C   C248      1.0  0.9319802441219996  0.5106970637407635  0.29890446219314265  1.0000
  C   C249      1.0  0.9483896841407959  0.5216789839051006  0.24037465618301687  1.0000
  H   H657      1.0  0.9995482187225698  0.5910441866888141  0.3171768843864946  1.0000
  H   H658      1.0  0.008570194943315679  0.49771333557969416  0.33074894472366445  1.0000
  H   H659      1.0  0.9563713573689926  0.5039188641453843  0.3781329012659874  1.0000
  H   H660      1.0  0.9148029955948032  0.47018648642006144  0.30157051838848514  1.0000
  H   H661      1.0  0.9000615899376508  0.5386136570321536  0.30398577039182423  1.0000
  H   H662      1.0  0.9662788466255677  0.5612090208530425  0.23437173522470037  1.0000
  H   H663      1.0  0.9784274202074524  0.4925109100620625  0.22566603248985995  1.0000
  H   H664      1.0  0.9129029657650672  0.51595731744608  0.21392754698303854  1.0000
  O   O84       1.0  0.8494293123413522  0.942951319140264  0.25167233809346135  1.0000
  C   C250      1.0  0.7970631708437754  0.9486433702986558  0.2345463390943061  1.0000
  C   C251      1.0  0.7961167579886059  0.9654213945851063  0.17522401951195626  1.0000
  C   C252      1.0  0.7413053698554627  0.9797617564822302  0.15441579699371305  1.0000
  H   H665      1.0  0.8656475584986235  0.9141602484201614  0.23312025467305234  1.0000
  H   H666      1.0  0.7720157344066552  0.9138619677373702  0.24067045291979472  1.0000
  H   H667      1.0  0.7773252463479312  0.9809284095021554  0.256905421874807  1.0000
  H   H668      1.0  0.8238791299230515  0.9983378053891322  0.17107651517019992  1.0000
  H   H669      1.0  0.8102721448357383  0.9320378830415073  0.15397035791748578  1.0000
  H   H670      1.0  0.7171752236268149  0.9439471798971922  0.15230477887305535  1.0000
  H   H671      1.0  0.7237546073403183  0.00735727897562044  0.18165883255743678  1.0000
  H   H672      1.0  0.7404150034428062  0.0013526140462434277  0.1150172012280627  1.0000
  O   O85       1.0  0.08852146919243375  0.24000220384639856  0.9849542466134302  1.0000
  C   C253      1.0  0.04243338812033539  0.24311522558967405  0.9555694209453797  1.0000
  C   C254      1.0  0.041791185688136154  0.2993386107864098  0.9359279655646392  1.0000
  C   C255      1.0  0.004817341518302455  0.3075439946261056  0.8871756199829253  1.0000
  H   H673      1.0  0.11548173332808923  0.2411527790118251  0.9566041874461262  1.0000
  H   H674      1.0  0.04056390283435823  0.21318116355276268  0.9205637582586857  1.0000
  H   H675      1.0  0.007258691853727189  0.23203539532730488  0.9801207850926736  1.0000
  H   H676      1.0  0.02924323159997273  0.32637943676260306  0.9648505438699441  1.0000
  H   H677      1.0  0.08153541934069952  0.3111614498592667  0.9233830501054873  1.0000
  H   H678      1.0  0.9712331599804119  0.2811080526461989  0.8913287932246838  1.0000
  H   H679      1.0  0.9917981430694028  0.3487129615796164  0.8861459346965387  1.0000
  H   H680      1.0  0.027974404778941482  0.3011167841174871  0.8489842808279013  1.0000
  O   O86       1.0  0.8345893138688147  0.9320331048152797  0.37938131058360186  1.0000
  C   C256      1.0  0.7950967043052741  0.8944429525651331  0.36438200953976013  1.0000
  C   C257      1.0  0.7405829141375689  0.9190730387549491  0.3634116311980974  1.0000
  C   C258      1.0  0.7222908871806195  0.9374781439047882  0.41804282250747693  1.0000
  H   H681      1.0  0.8494464522448029  0.9458901354313989  0.34584365283365825  1.0000
  H   H682      1.0  0.8033403306549237  0.8808226956433335  0.32515563787472396  1.0000
  H   H683      1.0  0.7960172554135794  0.8620440009573245  0.39369929907360474  1.0000
  H   H684      1.0  0.7358607100975527  0.9533847615989375  0.3361898501325653  1.0000
  H   H685      1.0  0.7145170924399554  0.8888599600366005  0.350937967652805  1.0000
  H   H686      1.0  0.7265788289074134  0.9069524506202101  0.44792125560520696  1.0000
  H   H687      1.0  0.7403364324967281  0.972373079538784  0.43098548345033566  1.0000
  H   H688      1.0  0.6785829158623621  0.9433881600335882  0.41279898861176917  1.0000
  O   O87       1.0  0.7308377990839539  0.42959836203049984  0.5676379371609882  1.0000
  C   C259      1.0  0.7634499382311876  0.4290474194646895  0.6185519623081365  1.0000
  C   C260      1.0  0.758523875266669  0.4819711016712089  0.651330950101181  1.0000
  C   C261      1.0  0.7708041838736662  0.5334364105440329  0.6190715070329021  1.0000
  H   H689      1.0  0.7144910036508032  0.4657611220799084  0.5629166055041246  1.0000
  H   H690      1.0  0.7531907012246544  0.39627612924021777  0.6453528288407769  1.0000
  H   H691      1.0  0.8067334311285881  0.4278125857649382  0.6065373607739788  1.0000
  H   H692      1.0  0.717746756661708  0.4862714810210699  0.6669858538436857  1.0000
  H   H693      1.0  0.7830305693408096  0.4855074264640564  0.6870972163816338  1.0000
  H   H694      1.0  0.7535617885241886  0.5651548838094218  0.6412080740566776  1.0000
  H   H695      1.0  0.812990341630519  0.5382207275487854  0.6119286667870547  1.0000
  H   H696      1.0  0.7506909250753472  0.5362324192240722  0.5819432228139025  1.0000
  O   O88       1.0  0.656348173128911  0.261468588159918  0.2681973589394051  1.0000
  C   C262      1.0  0.6508552030664163  0.22033900131353484  0.3089723351558403  1.0000
  C   C263      1.0  0.6096756374926096  0.2419953281714503  0.35228337691118805  1.0000
  C   C264      1.0  0.552603559872937  0.23915506652396737  0.33454820834345034  1.0000
  H   H697      1.0  0.6764081159565074  0.2908952591928653  0.28139452116567637  1.0000
  H   H698      1.0  0.6349426317747546  0.1825875552000022  0.291523066110182  1.0000
  H   H699      1.0  0.6913019608278104  0.2125152656195582  0.323606180026039  1.0000
  H   H700      1.0  0.6145783791186328  0.2188256248980337  0.38633572521382564  1.0000
  H   H701      1.0  0.6198111786000905  0.2828856196033895  0.35581245901528347  1.0000
  H   H702      1.0  0.5240295821377124  0.257411581045131  0.3619787780537786  1.0000
  H   H703      1.0  0.5474982861877623  0.260284472764921  0.30053533478202893  1.0000
  H   H704      1.0  0.5391861761701543  0.1992991244870651  0.3309117738064451  1.0000
  O   O89       1.0  0.39411073349750764  0.20500200170566318  0.2206267211501412  1.0000
  C   C265      1.0  0.4318346685272041  0.2071820915775437  0.26477170394165567  1.0000
  C   C266      1.0  0.4010778517600643  0.2065676515264242  0.31759840529327305  1.0000
  C   C267      1.0  0.384536487050356  0.2626713794730046  0.33042127618015465  1.0000
  H   H705      1.0  0.41429088348679066  0.19350161755375664  0.18686275552035214  1.0000
  H   H706      1.0  0.4537784873841934  0.1707407697265187  0.26528645175194937  1.0000
  H   H707      1.0  0.45900628119951337  0.24199788766568572  0.2591182746248163  1.0000
  H   H708      1.0  0.361776132672294  0.18436426885990692  0.3137148640532958  1.0000
  H   H709      1.0  0.421138780293146  0.18651517882749044  0.34844729267851  1.0000
  H   H710      1.0  0.3563690899645848  0.2710715970080348  0.36192796511493575  1.0000
  H   H711      1.0  0.4222797616296286  0.282967470137545  0.33811968532635156  1.0000
  H   H712      1.0  0.37215550089466976  0.28585905686129115  0.29459873641490053  1.0000
  O   O90       1.0  0.32355699773592383  0.7076937301174913  0.6726727474442514  1.0000
  C   C268      1.0  0.3003765057787897  0.6827990362802762  0.6296637594089484  1.0000
  C   C269      1.0  0.24501328400843922  0.6547157840088746  0.6471903663741779  1.0000
  C   C270      1.0  0.20485758253170644  0.6965103017712212  0.661207571944754  1.0000
  H   H713      1.0  0.3110127645965028  0.7429379864154094  0.6813962159399181  1.0000
  H   H714      1.0  0.2919931247614557  0.7162536864154018  0.6010073048845705  1.0000
  H   H715      1.0  0.3267504103421821  0.6524230521356806  0.6115844269398701  1.0000
  H   H716      1.0  0.231710589663785  0.6282146383467092  0.6168397509248928  1.0000
  H   H717      1.0  0.25256058120345853  0.6275236941898154  0.6787927661584878  1.0000
  H   H718      1.0  0.20439891893803694  0.7279845308160059  0.6288036150684296  1.0000
  H   H719      1.0  0.16302882273656957  0.6804972795755364  0.6607287914500666  1.0000
  H   H720      1.0  0.2148770310722417  0.7204867196944784  0.6950747185527343  1.0000
  O   O91       1.0  0.2231336640423566  0.4810637090750571  0.758335791208533  1.0000
  C   C271      1.0  0.215302515079695  0.43065595681818797  0.785330733568555  1.0000
  C   C272      1.0  0.26947352546901043  0.40780038424452897  0.804539064233247  1.0000
  C   C273      1.0  0.30276680659015026  0.38155057399765396  0.7610470860768046  1.0000
  H   H721      1.0  0.18794926460069372  0.4985999480409638  0.7572361808736376  1.0000
  H   H722      1.0  0.1915161152490558  0.43155053245967395  0.8208848743585345  1.0000
  H   H723      1.0  0.19929612880125344  0.40332538233681775  0.7563339076635789  1.0000
  H   H724      1.0  0.2920308364457448  0.4372516462237227  0.8276316379411359  1.0000
  H   H725      1.0  0.2590068839406318  0.38011665920200555  0.8345949259088393  1.0000
  H   H726      1.0  0.33113705780907193  0.4126735483440343  0.7453140670632868  1.0000
  H   H727      1.0  0.32303711145367053  0.3483856341959721  0.7775444252589795  1.0000
  H   H728      1.0  0.2788487285943759  0.3630543851280698  0.7284966054121089  1.0000
  O   O92       1.0  0.8985467534533549  0.8607883111768468  0.18912128313486679  1.0000
  C   C274      1.0  0.9451676797135051  0.8287064481804965  0.19982346612630267  1.0000
  C   C275      1.0  0.9604919951725328  0.8332972965269988  0.2569727492573471  1.0000
  C   C276      1.0  0.9187795366960075  0.803661287335346  0.29188249274046857  1.0000
  H   H729      1.0  0.8943093216772716  0.8615214605467472  0.14934163684969515  1.0000
  H   H730      1.0  0.9396560532164097  0.7872867338949601  0.18654041471697913  1.0000
  H   H731      1.0  0.9799245100167888  0.8430822274816954  0.17577145425453455  1.0000
  H   H732      1.0  0.9996380137486971  0.8142235824556537  0.2685233968341873  1.0000
  H   H733      1.0  0.9690464909244849  0.8748670233382723  0.2679305902152359  1.0000
  H   H734      1.0  0.877846186753776  0.8099976025971521  0.2780781522376966  1.0000
  H   H735      1.0  0.9228926658015297  0.7634886928785619  0.29344171499803007  1.0000
  H   H736      1.0  0.9188012269881533  0.8170245968018308  0.3353742243711339  1.0000
  O   O93       1.0  0.08441282367507355  0.0430056989042925  0.15778016329759  1.0000
  C   C277      1.0  0.12180515608700747  0.05002349729987022  0.11575732807269394  1.0000
  C   C278      1.0  0.0980518133749404  0.03833891544941403  0.062343782844948584  1.0000
  C   C279      1.0  0.06750214983240253  0.08618305291180116  0.03827372568393308  1.0000
  H   H737      1.0  0.0821240545049323  0.07854265684762166  0.17478374674124408  1.0000
  H   H738      1.0  0.14122742301376634  0.0891767490218535  0.11673355543722495  1.0000
  H   H739      1.0  0.15507193051804088  0.01980626382693641  0.1184257540964725  1.0000
  H   H740      1.0  0.1313933948601097  0.030106342997503106  0.03665594798764499  1.0000
  H   H741      1.0  0.07515859551990314  0.0018624636751797285  0.060815494403300085  1.0000
  H   H742      1.0  0.09250276863875471  0.12149745255282722  0.041959660211207984  1.0000
  H   H743      1.0  0.06325749882727806  0.0780820683647812  0.9966238688498534  1.0000
  H   H744      1.0  0.026138412405490512  0.09416544663146205  0.05445979227487359  1.0000
  O   O94       1.0  0.13772145309887823  0.6591013320503238  0.40362908539383435  1.0000
  C   C280      1.0  0.11817588869053249  0.6148635012892705  0.37625270363975927  1.0000
  C   C281      1.0  0.16491438627466776  0.5797772962455277  0.3666914260389618  1.0000
  C   C282      1.0  0.1562477224870895  0.532289969059214  0.32619302112730564  1.0000
  H   H745      1.0  0.13441869756287264  0.6931937240915754  0.3853715660813187  1.0000
  H   H746      1.0  0.08528270379566892  0.5904340505006128  0.3949677302605263  1.0000
  H   H747      1.0  0.10223336014313211  0.6287240965885993  0.3381434615446676  1.0000
  H   H748      1.0  0.1988235293439887  0.6042655609273555  0.35346098879714133  1.0000
  H   H749      1.0  0.1784684534111011  0.5613213403827347  0.4062343554897915  1.0000
  H   H750      1.0  0.12097148980779536  0.5098544386352941  0.3412991433807703  1.0000
  H   H751      1.0  0.14615880417548838  0.5476349887072796  0.2885953792650078  1.0000
  H   H752      1.0  0.1924152035051258  0.5045044280755835  0.32240649851634146  1.0000
  O   O95       1.0  0.5976691128586233  0.23011363703369006  0.18328517344587245  1.0000
  C   C283      1.0  0.5582567808357326  0.26627905121142253  0.16743704717327207  1.0000
  C   C284      1.0  0.5531215498948192  0.2666036862950097  0.10570638665940317  1.0000
  C   C285      1.0  0.6050514954423138  0.2870088733635204  0.07695299422332319  1.0000
  H   H753      1.0  0.624816456658685  0.24835030026547938  0.20069705327886272  1.0000
  H   H754      1.0  0.5175418133672411  0.25679304548513715  0.18210911586518033  1.0000
  H   H755      1.0  0.5632562567908809  0.3080131622059824  0.18217602614201073  1.0000
  H   H756      1.0  0.5413470215241695  0.22555943872014741  0.09370923795738391  1.0000
  H   H757      1.0  0.5187140406530801  0.29351983066666537  0.09268058609114911  1.0000
  H   H758      1.0  0.6252082863189904  0.3178101140756589  0.10009195851571501  1.0000
  H   H759      1.0  0.632804121258505  0.25512226196345844  0.07167770522897095  1.0000
  H   H760      1.0  0.593979097136874  0.30796068084430106  0.038684121916217416  1.0000
  O   O96       1.0  0.2408067947959578  0.19854834216216033  0.11642207886579134  1.0000
  C   C286      1.0  0.2851487735524434  0.21898250078092427  0.1470173365555238  1.0000
  C   C287      1.0  0.31238339065850795  0.2631150268635049  0.11532711395130181  1.0000
  C   C288      1.0  0.340987287477738  0.24448109251131825  0.06413199096801271  1.0000
  H   H761      1.0  0.22007079160643736  0.22525973653791667  0.09673655064047311  1.0000
  H   H762      1.0  0.27082198727318274  0.2400065267951833  0.18193580188205888  1.0000
  H   H763      1.0  0.3132855123745006  0.18829162687575163  0.1578424854116144  1.0000
  H   H764      1.0  0.28374564982633077  0.2947770751500264  0.10080349314169167  1.0000
  H   H765      1.0  0.3393772331954671  0.2843562412919749  0.14301055429631504  1.0000
  H   H766      1.0  0.364162337577158  0.20893474471924448  0.07336562388263362  1.0000
  H   H767      1.0  0.3143041250749042  0.23526997018348453  0.029634151103014726  1.0000
  H   H768      1.0  0.36799990096449753  0.27532766653047447  0.05059061314951233  1.0000
  O   O97       1.0  0.42025015824917233  0.44323886826151687  0.38006497388001026  1.0000
  C   C289      1.0  0.43766194305045186  0.4032082849785201  0.4204331233188374  1.0000
  C   C290      1.0  0.38874953623423647  0.3690263631251623  0.4392455288143496  1.0000
  C   C291      1.0  0.40495049099399105  0.32744457762479784  0.48038285140103876  1.0000
  H   H769      1.0  0.403883264603248  0.47296793377675206  0.40081115898173925  1.0000
  H   H770      1.0  0.4689441062481812  0.3800570488715272  0.40264892395505064  1.0000
  H   H771      1.0  0.4555096963619032  0.42578590212444944  0.453455596669289  1.0000
  H   H772      1.0  0.35779299382557966  0.39348387451156536  0.4554848966639908  1.0000
  H   H773      1.0  0.37305792599641685  0.34909625906230757  0.40335431571533786  1.0000
  H   H774      1.0  0.3945557650109586  0.3360022209542499  0.5207218777955466  1.0000
  H   H775      1.0  0.38234117262126255  0.2919503509486734  0.4706196107384878  1.0000
  H   H776      1.0  0.4469748053735486  0.3187246356406077  0.47876202791853917  1.0000
  O   O98       1.0  0.947946017664429  0.36073006574803185  0.035490143095916665  1.0000
  C   C292      1.0  0.9305377593746259  0.41400909816183  0.050621119919160185  1.0000
  C   C293      1.0  0.9071513798244188  0.41263942042882146  0.10562913383098706  1.0000
  C   C294      1.0  0.9435962663586535  0.3904724408718645  0.14807799343193448  1.0000
  H   H777      1.0  0.9850612574888523  0.36293558077757815  0.025535113728998367  1.0000
  H   H778      1.0  0.9658319188517457  0.44000548786248855  0.0505195695896965  1.0000
  H   H779      1.0  0.9023473443361137  0.4319339814364312  0.02077520794524868  1.0000
  H   H780      1.0  0.8967946120514523  0.45109639071084084  0.12236373975903526  1.0000
  H   H781      1.0  0.8703029468958979  0.3892239560060281  0.1057779610448838  1.0000
  H   H782      1.0  0.9437111644684478  0.34786335939703833  0.14913119886792703  1.0000
  H   H783      1.0  0.9853178256125689  0.3970028701327852  0.1464031617184256  1.0000
  H   H784      1.0  0.9292416465239356  0.40420023949475115  0.1878696129174194  1.0000
  O   O99       1.0  0.2706134829282745  0.08584230180198203  0.06371273571264854  1.0000
  C   C295      1.0  0.2991813368836762  0.09732950915111287  0.01701904299559951  1.0000
  C   C296      1.0  0.26420728078969297  0.09548720293441754  0.9681566932383852  1.0000
  C   C297      1.0  0.21785934206524538  0.13689270699702652  0.9710833748945852  1.0000
  H   H785      1.0  0.2637695488249718  0.12142595371556855  0.07893415926483938  1.0000
  H   H786      1.0  0.3164234097615327  0.13670947631571792  0.016410052754638572  1.0000
  H   H787      1.0  0.3321606002297692  0.07107487336096605  0.014375471143977653  1.0000
  H   H788      1.0  0.2877861810667759  0.10676856960989735  0.9314553336121449  1.0000
  H   H789      1.0  0.25106790897699544  0.0538834901590639  0.962515872522168  1.0000
  H   H790      1.0  0.22435287436980747  0.1672829017621719  0.003204482408885888  1.0000
  H   H791      1.0  0.21582932157907947  0.15365911832889578  0.9329104269601408  1.0000
  H   H792      1.0  0.18261973079011082  0.11744515646611249  0.9810926987805119  1.0000
  O   O100      1.0  0.31249654439961955  0.329034875251783  0.9092914450435517  1.0000
  C   C298      1.0  0.3598827387598013  0.30129379598726214  0.9239527632234757  1.0000
  C   C299      1.0  0.36709868900814613  0.25008907440356254  0.8896352764477743  1.0000
  C   C300      1.0  0.3361506028312594  0.20429524490829187  0.9169270585076592  1.0000
  H   H793      1.0  0.2938488451613926  0.33419683952746865  0.9427693023995954  1.0000
  H   H794      1.0  0.39341868951755105  0.3285494966139634  0.915679331907398  1.0000
  H   H795      1.0  0.36336790905631844  0.2873284650068586  0.9652972442038557  1.0000
  H   H796      1.0  0.35273489284781606  0.2557219701112966  0.8492890073645143  1.0000
  H   H797      1.0  0.40930847109162655  0.24093534446945947  0.8858117061816299  1.0000
  H   H798      1.0  0.35034789150564394  0.19064448121684435  0.9549983423926848  1.0000
  H   H799      1.0  0.2931391686240538  0.2113917279699029  0.914804209137821  1.0000
  H   H800      1.0  0.3357933941377206  0.17052009297256449  0.8899780753120307  1.0000
  O   O101      1.0  0.4444225856366708  0.5477686191975188  0.25337660498473297  1.0000
  C   C301      1.0  0.46260487124640776  0.5778033595783637  0.21109413000446473  1.0000
  C   C302      1.0  0.4311495260761342  0.5591593574315459  0.16262093430763194  1.0000
  C   C303      1.0  0.45220646686021043  0.5824179459714487  0.10623256769903427  1.0000
  H   H801      1.0  0.45377598435231337  0.5107543233286724  0.24368211399940587  1.0000
  H   H802      1.0  0.4584648942909137  0.6195483916648405  0.22265234274167822  1.0000
  H   H803      1.0  0.503869150631982  0.5678003495356815  0.2042785598846619  1.0000
  H   H804      1.0  0.43908436815440743  0.5157511073813859  0.15660194464012772  1.0000
  H   H805      1.0  0.3881149037338772  0.5662673492707163  0.169890181440833  1.0000
  H   H806      1.0  0.49649913052075906  0.5840234876391355  0.10209314065507162  1.0000
  H   H807      1.0  0.43154821909359325  0.5607018000313888  0.07286903508154248  1.0000
  H   H808      1.0  0.4361967059619808  0.6217072270385294  0.1018118201504871  1.0000
  O   O102      1.0  0.21130390475236852  0.6035798498765098  0.19695842386677387  1.0000
  C   C304      1.0  0.2226403977725426  0.6501564853951055  0.22980485276231363  1.0000
  C   C305      1.0  0.2815400206792071  0.6631782854861958  0.2213620697685449  1.0000
  C   C306      1.0  0.31789714085588494  0.6201480998126787  0.2431338446477861  1.0000
  H   H809      1.0  0.22736563527248135  0.6111905876968607  0.16227633421471532  1.0000
  H   H810      1.0  0.2023009452119554  0.6867393253683642  0.21492742730299713  1.0000
  H   H811      1.0  0.2118531788953403  0.6432491675264488  0.27269886713960045  1.0000
  H   H812      1.0  0.2897030287259636  0.667471687361326  0.17773503882717948  1.0000
  H   H813      1.0  0.28767628822549723  0.7032884631948673  0.23515156425045813  1.0000
  H   H814      1.0  0.35876697422694076  0.6283415195973723  0.22741999380866723  1.0000
  H   H815      1.0  0.32219816475136587  0.6217982356076748  0.28642670353659805  1.0000
  H   H816      1.0  0.30641660759573053  0.5807766075680882  0.22909161154176522  1.0000
  O   O103      1.0  0.4606759839839959  0.20907552366176962  0.778817937660261  1.0000
  C   C307      1.0  0.4412071793525124  0.2081522989416515  0.7259925063140168  1.0000
  C   C308      1.0  0.3789590691853594  0.2007191793649624  0.7209929544130244  1.0000
  C   C309      1.0  0.35876416820692847  0.2028514328979451  0.6642722833834444  1.0000
  H   H817      1.0  0.4712744169998425  0.17480723826205005  0.7932747901441733  1.0000
  H   H818      1.0  0.45688096736715056  0.24519073127454605  0.7116711050324926  1.0000
  H   H819      1.0  0.46016208907336587  0.17915780509100054  0.7034000244589844  1.0000
  H   H820      1.0  0.3614619256290701  0.16113131462695804  0.7359454998551646  1.0000
  H   H821      1.0  0.3615337847120608  0.23105739536291348  0.7453939267029827  1.0000
  H   H822      1.0  0.35520911063601374  0.24466908193536563  0.645797253980341  1.0000
  H   H823      1.0  0.38314546018506734  0.17494141906144295  0.6357126773057691  1.0000
  H   H824      1.0  0.3186923654164105  0.18719474701264663  0.6671267651944105  1.0000
  O   O104      1.0  0.6580924268988193  0.6432393080858614  0.8437148122276175  1.0000
  C   C310      1.0  0.638305661272725  0.5905045063747862  0.82754927526956  1.0000
  C   C311      1.0  0.5775134973532315  0.5841022478533908  0.8313650342471764  1.0000
  C   C312      1.0  0.5627286729400548  0.5271209513629532  0.8120531054985836  1.0000
  H   H825      1.0  0.6967944000646403  0.6393960948843863  0.8418367001299374  1.0000
  H   H826      1.0  0.6498093635820643  0.5817596509727285  0.7878923196944663  1.0000
  H   H827      1.0  0.6540474021296566  0.5615897775297426  0.8560984155327611  1.0000
  H   H828      1.0  0.5681871357557381  0.5924230793167901  0.8714388847921317  1.0000
  H   H829      1.0  0.564390412544321  0.6141970534445346  0.8044627688791385  1.0000
  H   H830      1.0  0.526130172218007  0.5289798758027454  0.7887510608261676  1.0000
  H   H831      1.0  0.5941387412656659  0.5084830543077139  0.7875941149575192  1.0000
  H   H832      1.0  0.5517286267691595  0.5010886512066658  0.8450298852962854  1.0000
  O   O105      1.0  0.7658920754609874  0.748038558217823  0.5188479749266961  1.0000
  C   C313      1.0  0.7614195384134229  0.7158143428878196  0.5649118535294577  1.0000
  C   C314      1.0  0.8144278207117547  0.6954941157592311  0.5879481533549231  1.0000
  C   C315      1.0  0.846514158150956  0.6623177999858118  0.5501829610435945  1.0000
  H   H833      1.0  0.7815955169479873  0.7821656093975745  0.532802688200937  1.0000
  H   H834      1.0  0.737144385325176  0.7388026361920768  0.5968798037238768  1.0000
  H   H835      1.0  0.7385038246836207  0.6803468881158229  0.5553037443811145  1.0000
  H   H836      1.0  0.8377629320456762  0.727737973626943  0.6035555810042622  1.0000
  H   H837      1.0  0.807804373696607  0.6696946460776996  0.6233998714322866  1.0000
  H   H838      1.0  0.8631792561362052  0.6838127192603861  0.5172438364678265  1.0000
  H   H839      1.0  0.8794872977172262  0.6410842266635592  0.5691813654663166  1.0000
  H   H840      1.0  0.8202804261562019  0.6335489122117866  0.5330463634241435  1.0000
  O   O106      1.0  0.974228591187055  0.8753735614425727  0.022848578398794867  1.0000
  C   C316      1.0  0.016807374643899253  0.8523329386683227  0.05623938750301257  1.0000
  C   C317      1.0  0.0011593724302811914  0.7962121654523802  0.07008534076168203  1.0000
  C   C318      1.0  0.9952746108792143  0.7529425515585974  0.02192258821613094  1.0000
  H   H841      1.0  0.9839237271156243  0.9097028790698325  0.008123859753383639  1.0000
  H   H842      1.0  0.056405402208245414  0.8567529939565833  0.03689101270165949  1.0000
  H   H843      1.0  0.012470364346945484  0.8763898230027847  0.09248962921246777  1.0000
  H   H844      1.0  0.024719654046874373  0.7784944023997364  0.1028843361096337  1.0000
  H   H845      1.0  0.9625509864137075  0.8022851629532715  0.08985934152162123  1.0000
  H   H846      1.0  0.03251498758561788  0.7475467329309372  0.0011461714993309738  1.0000
  H   H847      1.0  0.9826174514385919  0.7140885940584462  0.0374720501004969  1.0000
  H   H848      1.0  0.9658876615108822  0.7630576914651724  0.9904770026832674  1.0000
  O   O107      1.0  0.3923654936244918  0.1004405113711288  0.562344276031923  1.0000
  C   C319      1.0  0.4391180034156887  0.126542101175616  0.5411399772480561  1.0000
  C   C320      1.0  0.4215839636982853  0.16690766209378563  0.4975311669473374  1.0000
  C   C321      1.0  0.47032895247366957  0.20108634213317714  0.480657962637023  1.0000
  H   H849      1.0  0.39957367075604183  0.062220879009360304  0.5612979816677506  1.0000
  H   H850      1.0  0.45561678318316956  0.1521512020617309  0.5741900944881656  1.0000
  H   H851      1.0  0.4680082737226854  0.09739818248487041  0.5289025183996853  1.0000
  H   H852      1.0  0.4029257413879843  0.1463883634122334  0.46423054850335677  1.0000
  H   H853      1.0  0.39147323134908657  0.19395411919587008  0.512534260114299  1.0000
  H   H854      1.0  0.48830559701611026  0.2210253191358894  0.5146623799666742  1.0000
  H   H855      1.0  0.501565915170203  0.17707388094846938  0.465648271326929  1.0000
  H   H856      1.0  0.4572266855737522  0.23613083501546728  0.458054711581762  1.0000
  O   O108      1.0  0.6265396646820675  0.8837779691205659  0.8007154180212582  1.0000
  C   C322      1.0  0.6274110712743686  0.885941393054683  0.8560763459090169  1.0000
  C   C323      1.0  0.6810409794525945  0.9036840317510832  0.8767849517346562  1.0000
  C   C324      1.0  0.6873257235099826  0.9636782784123719  0.8840314278385154  1.0000
  H   H857      1.0  0.5892032745356249  0.8919463617674368  0.7892647278992652  1.0000
  H   H858      1.0  0.6000173977251545  0.9177550841180468  0.8654006979238063  1.0000
  H   H859      1.0  0.6155936168016259  0.846091727086914  0.8710727272128912  1.0000
  H   H860      1.0  0.6827955475429107  0.8828719797332313  0.9160517842440163  1.0000
  H   H861      1.0  0.7123843840271521  0.885059141316309  0.8528422827926354  1.0000
  H   H862      1.0  0.7277645936393823  0.9692533837065322  0.8997178053679091  1.0000
  H   H863      1.0  0.6817826987742202  0.9868879498761807  0.8476029988880005  1.0000
  H   H864      1.0  0.6596918253031945  0.9812731042291607  0.9134922458725421  1.0000
  O   O109      1.0  0.2520142645745652  0.610359338563129  0.09019183521078063  1.0000
  C   C325      1.0  0.2309830714197759  0.6386460330509456  0.04600616373740983  1.0000
  C   C326      1.0  0.17204865696641203  0.6242906171765416  0.037182624066941  1.0000
  C   C327      1.0  0.1367373384999751  0.6626357232063116  0.06812619802686586  1.0000
  H   H865      1.0  0.2650288219769034  0.5755781638393758  0.07795786072593085  1.0000
  H   H866      1.0  0.2379146963324134  0.6812819246016326  0.042977410469014606  1.0000
  H   H867      1.0  0.24913938196031557  0.6203100191358182  0.012437842952285531  1.0000
  H   H868      1.0  0.1605920132469066  0.623357059447771  0.9957542638838349  1.0000
  H   H869      1.0  0.1724081782307871  0.5819525888053139  0.05063215910487676  1.0000
  H   H870      1.0  0.1355568251646765  0.7029264770703452  0.0503395099455989  1.0000
  H   H871      1.0  0.09521061294139409  0.6472565752454109  0.06751838435005632  1.0000
  H   H872      1.0  0.14701533611813086  0.6661717068392937  0.11221450931373596  1.0000
  O   O110      1.0  0.16110873326341554  0.07131256675548238  0.7140807827699182  1.0000
  C   C328      1.0  0.15389315240611393  0.11035865610797735  0.6699835221997241  1.0000
  C   C329      1.0  0.2056340560235427  0.12260093055906449  0.6430682120394876  1.0000
  C   C330      1.0  0.23453234637073328  0.07586942396881563  0.6154012479664385  1.0000
  H   H873      1.0  0.14270881390258042  0.03808701143434787  0.7025107956435017  1.0000
  H   H874      1.0  0.12538922258466426  0.09426250343220825  0.6386751556976428  1.0000
  H   H875      1.0  0.14064552794379862  0.14578243645286165  0.6885892249766105  1.0000
  H   H876      1.0  0.1968324149992632  0.1529904712356566  0.6114529197522901  1.0000
  H   H877      1.0  0.23394496212600718  0.1387421417848967  0.6704005686636516  1.0000
  H   H878      1.0  0.2509865133226606  0.053064650814843885  0.647457021378392  1.0000
  H   H879      1.0  0.20923395424754357  0.049967342306490706  0.5923332465165517  1.0000
  H   H880      1.0  0.2670184007046121  0.08979721861632946  0.5950180732640724  1.0000
  O   O111      1.0  0.63664961005195  0.28427886480304815  0.6553071114731646  1.0000
  C   C331      1.0  0.6042492552353241  0.26574644300621414  0.6981070460472724  1.0000
  C   C332      1.0  0.5886502082695332  0.2069390418140907  0.6931839409944545  1.0000
  C   C333      1.0  0.5630202795338697  0.19086128990183446  0.6398158714224819  1.0000
  H   H881      1.0  0.6136842205828563  0.30644114207962164  0.6336804953452108  1.0000
  H   H882      1.0  0.6262656914408793  0.2718968925442542  0.7351560010546186  1.0000
  H   H883      1.0  0.5675753311446982  0.288525056196656  0.6987583635712616  1.0000
  H   H884      1.0  0.624586470773297  0.1813962162021196  0.6955578219962063  1.0000
  H   H885      1.0  0.5609849499958113  0.1951110078069188  0.7227214333165661  1.0000
  H   H886      1.0  0.5284602929062466  0.21398486343092502  0.6295894354658107  1.0000
  H   H887      1.0  0.5905742035857624  0.19151056006900874  0.6042693530504754  1.0000
  H   H888      1.0  0.5489121413399926  0.15014909107686647  0.6456417809086455  1.0000
  O   O112      1.0  0.10896734454517855  0.9734610860644093  0.6706982421773117  1.0000
  C   C334      1.0  0.13900080498009454  0.9437949681229519  0.6346400285408007  1.0000
  C   C335      1.0  0.11203736503576141  0.9431781578457741  0.5803820856077256  1.0000
  C   C336      1.0  0.05300973282419334  0.925007324153619  0.576670682979585  1.0000
  H   H889      1.0  0.07157013489908408  0.9622837250356068  0.667388566424175  1.0000
  H   H890      1.0  0.17862280757386725  0.9627322452864232  0.6236427883899177  1.0000
  H   H891      1.0  0.14253523430781548  0.9027445208224226  0.6479963227584434  1.0000
  H   H892      1.0  0.1129342158715949  0.9855033310906027  0.5641040768306652  1.0000
  H   H893      1.0  0.1360131097845988  0.9223055093943362  0.5545154968976975  1.0000
  H   H894      1.0  0.024394182492915556  0.9537085242993723  0.5937045171241768  1.0000
  H   H895      1.0  0.04467193163965396  0.9223753584970007  0.5337570638387008  1.0000
  H   H896      1.0  0.050937407321843466  0.8845492663663316  0.5955945360192592  1.0000
  O   O113      1.0  0.7390860517681428  0.9137397132188684  0.7592023440263846  1.0000
  C   C337      1.0  0.7469288610024298  0.9667885700814792  0.7509356623475052  1.0000
  C   C338      1.0  0.6952125960459141  0.9951792038130622  0.7288513110737677  1.0000
  C   C339      1.0  0.7001033931004239  0.05266320851056938  0.7169551345585029  1.0000
  H   H897      1.0  0.7080243184009684  0.9094768749733637  0.7830712198509326  1.0000
  H   H898      1.0  0.7578436625358929  0.9863865689320842  0.7882204812895298  1.0000
  H   H899      1.0  0.7775795392773001  0.9702160263078888  0.7234851463160918  1.0000
  H   H900      1.0  0.6822008828353214  0.9764309968108346  0.6921399218246295  1.0000
  H   H901      1.0  0.6627526690705431  0.9903491546862047  0.7592505024392813  1.0000
  H   H902      1.0  0.6633920793995077  0.06846334655258346  0.6981162223728844  1.0000
  H   H903      1.0  0.7094445820305316  0.07881336429072938  0.7479552094431394  1.0000
  H   H904      1.0  0.7260222361298453  0.062442982305061845  0.6836702150350448  1.0000
  O   O114      1.0  0.4420908716761924  0.16893207053992693  0.1340276643398755  1.0000
  C   C340      1.0  0.4176522067878116  0.11833367433306428  0.12128366778482647  1.0000
  C   C341      1.0  0.4448709539957989  0.09480505656678155  0.07286399641276027  1.0000
  C   C342      1.0  0.4522214834610018  0.13496526986285398  0.023968170045530795  1.0000
  H   H905      1.0  0.4800489640459954  0.16487572665900424  0.1302025294302921  1.0000
  H   H906      1.0  0.4210757189994131  0.0894103755362953  0.15119591626670376  1.0000
  H   H907      1.0  0.3719382178463702  0.12316342007416738  0.11324951279732612  1.0000
  H   H908      1.0  0.4854695441998347  0.0842468565577262  0.0855690677405023  1.0000
  H   H909      1.0  0.4269471327701495  0.05598147342807875  0.05828469457545784  1.0000
  H   H910      1.0  0.41492870133876086  0.15574735587727837  0.016865340535653302  1.0000
  H   H911      1.0  0.48340592662412074  0.1637907349050573  0.03218264750541672  1.0000
  H   H912      1.0  0.4622575219934563  0.11015153588601974  0.9890922514894899  1.0000
  O   O115      1.0  0.41990872442200006  0.7484286812835567  0.5188202932629271  1.0000
  C   C343      1.0  0.4184299502850212  0.7557359057126902  0.5742384047927505  1.0000
  C   C344      1.0  0.4097289685188085  0.8156481690340017  0.5917024057416901  1.0000
  C   C345      1.0  0.41793630468360854  0.8231878442086701  0.6526931958772602  1.0000
  H   H913      1.0  0.4256866647634443  0.7088446842168943  0.5127451720617545  1.0000
  H   H914      1.0  0.3871607555360238  0.7289140312076351  0.5885388744453263  1.0000
  H   H915      1.0  0.45326208983930555  0.7368562674687267  0.5943892042978038  1.0000
  H   H916      1.0  0.4349387787612666  0.8426004131294631  0.5716520949147709  1.0000
  H   H917      1.0  0.3684588870297881  0.8256748034033116  0.58117325283111  1.0000
  H   H918      1.0  0.4608552328763852  0.8187783306807277  0.6629482614290747  1.0000
  H   H919      1.0  0.4065584215759806  0.8648037580218695  0.6619625634984881  1.0000
  H   H920      1.0  0.39435573598368706  0.7969082285977447  0.6819569801722049  1.0000
  O   O116      1.0  0.06452618568528759  0.39880517953028843  0.33030861509297466  1.0000
  C   C346      1.0  0.09766467645208504  0.35603603682096074  0.31625092959220835  1.0000
  C   C347      1.0  0.1559707153883564  0.36256544180704053  0.3416205171669022  1.0000
  C   C348      1.0  0.15351039529202087  0.3709701150966772  0.40235049177819315  1.0000
  H   H921      1.0  0.028010035706149013  0.38910947500194343  0.3213887200273572  1.0000
  H   H922      1.0  0.08548076101434741  0.3132703065055321  0.3300361965546698  1.0000
  H   H923      1.0  0.1006110956777043  0.35718361590295344  0.27227393304367853  1.0000
  H   H924      1.0  0.18328507841416164  0.3314100835165079  0.3292659231861228  1.0000
  H   H925      1.0  0.17419761421126914  0.4003113705146371  0.3278972311585997  1.0000
  H   H926      1.0  0.14607960776965687  0.3324561882148811  0.4216857036935483  1.0000
  H   H927      1.0  0.19246798825256164  0.38445825766176556  0.41650769893985257  1.0000
  H   H928      1.0  0.12226440776394154  0.3977558517061933  0.4180797950120575  1.0000
  O   O117      1.0  0.12272137470359479  0.7517649770491327  0.3540608866107789  1.0000
  C   C349      1.0  0.07288548749617328  0.7763536548608727  0.35383010428808254  1.0000
  C   C350      1.0  0.07262934124963322  0.8170079117782008  0.4017676201480511  1.0000
  C   C351      1.0  0.11962070549223126  0.8580096698401686  0.3971026379218329  1.0000
  H   H929      1.0  0.14666943778866323  0.7823720472998013  0.34176605485216616  1.0000
  H   H930      1.0  0.06282611370844561  0.7935105781330075  0.3169466138035965  1.0000
  H   H931      1.0  0.04520784845936178  0.7436023487315971  0.36087002916738214  1.0000
  H   H932      1.0  0.033993937200777126  0.8380246573295966  0.39892095002323524  1.0000
  H   H933      1.0  0.07396117966161976  0.796329338756522  0.43914204445040383  1.0000
  H   H934      1.0  0.11676968378983073  0.891240059849886  0.4282319829714353  1.0000
  H   H935      1.0  0.15874649344742262  0.8388033869299139  0.39828840305142416  1.0000
  H   H936      1.0  0.1144243663779336  0.8765450682369477  0.35802229739123664  1.0000
  O   O118      1.0  0.8957748617538749  0.8536861592152337  0.9244749247000766  1.0000
  C   C352      1.0  0.9162041475123227  0.8695491688851814  0.8743936274436994  1.0000
  C   C353      1.0  0.8746751471570164  0.8991741814366953  0.8444086005762568  1.0000
  C   C354      1.0  0.8575104881445756  0.9549511696852736  0.8696313800626913  1.0000
  H   H937      1.0  0.9306076084772905  0.8485078510757834  0.9410235317009149  1.0000
  H   H938      1.0  0.9519083004304171  0.8940732303026829  0.8789199353418071  1.0000
  H   H939      1.0  0.9277575255609533  0.8347774738727949  0.8505936901669301  1.0000
  H   H940      1.0  0.8946303543035381  0.9082710879744655  0.8056679491065278  1.0000
  H   H941      1.0  0.8401481134709438  0.8755670304984452  0.8378708530783618  1.0000
  H   H942      1.0  0.8864161539863401  0.9835702345993612  0.8637802156011722  1.0000
  H   H943      1.0  0.8223495042778746  0.970375215159238  0.8489575089237736  1.0000
  H   H944      1.0  0.8414129799746556  0.9520319963294693  0.9092000571428077  1.0000
  O   O119      1.0  0.698496486395653  0.7926490309812939  0.44093070307944415  1.0000
  C   C355      1.0  0.6740924802481498  0.770362944085713  0.39673405365417874  1.0000
  C   C356      1.0  0.6796556024014414  0.7068850436590576  0.39963840047261323  1.0000
  C   C357      1.0  0.6482819375830128  0.6795636081268106  0.4471312641507295  1.0000
  H   H945      1.0  0.720221126341594  0.767043333343767  0.4585118017843036  1.0000
  H   H946      1.0  0.6313338033532963  0.782516295496203  0.4008763817498645  1.0000
  H   H947      1.0  0.6860356020309154  0.7885550131901932  0.35986267871876104  1.0000
  H   H948      1.0  0.6626362540319763  0.6894638924687445  0.3640909719433433  1.0000
  H   H949      1.0  0.7201444516558868  0.6939343058160273  0.39654308763018636  1.0000
  H   H950      1.0  0.6062385496631449  0.6938107618086636  0.4510049650359859  1.0000
  H   H951      1.0  0.6479505150881163  0.6351866481578263  0.43862287905723685  1.0000
  H   H952      1.0  0.6722701108096064  0.6825818291778208  0.4817326213823176  1.0000
  O   O120      1.0  0.5125811294359558  0.9298578500296043  0.805311195690432  1.0000
  C   C358      1.0  0.46359242726563205  0.9140688605194174  0.8332172849956146  1.0000
  C   C359      1.0  0.4495534932311773  0.9513014255396709  0.8800371404599736  1.0000
  C   C360      1.0  0.49124191027536523  0.9497852236206686  0.9295821701938444  1.0000
  H   H953      1.0  0.5007600725058926  0.9605751161096837  0.7877015051645401  1.0000
  H   H954      1.0  0.4307597823419992  0.9136214778657747  0.8059300533244246  1.0000
  H   H955      1.0  0.4688308387871145  0.871289706477814  0.8479809877164214  1.0000
  H   H956      1.0  0.44447787301836456  0.9931739830248087  0.8642592994816141  1.0000
  H   H957      1.0  0.40879669988127787  0.9447521501783501  0.8964850317403897  1.0000
  H   H958      1.0  0.4757708058139448  0.9793193035488812  0.9601719482517517  1.0000
  H   H959      1.0  0.4951533419307773  0.9091792010620814  0.9454589829215657  1.0000
  H   H960      1.0  0.5278136398885298  0.965309681826923  0.9166656366094934  1.0000
  O   O121      1.0  0.3394623263388333  0.6634177137064616  0.8581440589936051  1.0000
  C   C361      1.0  0.3161929685987019  0.6393954121670331  0.9015121897569291  1.0000
  C   C362      1.0  0.3544366380189633  0.6507858847894166  0.9501971888702364  1.0000
  C   C363      1.0  0.41132764643171965  0.6313934136837748  0.9434170552403751  1.0000
  H   H961      1.0  0.3163284007152237  0.6471695102934516  0.8301978504015864  1.0000
  H   H962      1.0  0.27288890431808505  0.6561095031742205  0.9065381342304506  1.0000
  H   H963      1.0  0.31295814721674536  0.5966625588473106  0.8901806451452932  1.0000
  H   H964      1.0  0.3576468871429177  0.6940135590818364  0.9512994537310779  1.0000
  H   H965      1.0  0.33739977041444896  0.638027933682528  0.9872814097875915  1.0000
  H   H966      1.0  0.4105944211159751  0.5896083760304168  0.931615300085777  1.0000
  H   H967      1.0  0.43057560372931614  0.6519008906590799  0.9104791060358919  1.0000
  H   H968      1.0  0.43966761871852594  0.6333256000177527  0.9766532091818054  1.0000
  O   O122      1.0  0.5837114798444148  0.4838192569107725  0.1290186323298943  1.0000
  C   C364      1.0  0.591913583300789  0.5246976980076646  0.08965912282855037  1.0000
  C   C365      1.0  0.5630773872300902  0.5166990745418165  0.036815874030591444  1.0000
  C   C366      1.0  0.5867247715727536  0.4684650605394726  0.0075832386651813076  1.0000
  H   H969      1.0  0.6147630507828696  0.4877592803872169  0.15333051099932266  1.0000
  H   H970      1.0  0.5749569168934581  0.5616155251590293  0.10841319754189066  1.0000
  H   H971      1.0  0.6353481881493671  0.5268870974086011  0.08139400539548769  1.0000
  H   H972      1.0  0.5213763806711468  0.5080566796264859  0.0447473740940987  1.0000
  H   H973      1.0  0.5656937680837636  0.5527197096974824  0.010110178376503848  1.0000
  H   H974      1.0  0.5909633787201216  0.43347631031631906  0.033231285852580936  1.0000
  H   H975      1.0  0.5617006183023957  0.4573814003798725  0.9748447753360159  1.0000
  H   H976      1.0  0.624140870262448  0.48202278699320417  0.991200236150225  1.0000
  O   O123      1.0  0.7673841600018081  0.46830545418479175  0.22545635277366693  1.0000
  C   C367      1.0  0.7944472830416559  0.4346201732210359  0.18749835503795245  1.0000
  C   C368      1.0  0.7726437691615046  0.37639027814480686  0.18952744667861054  1.0000
  C   C369      1.0  0.7142675777368143  0.3731887504666438  0.17271760704778347  1.0000
  H   H977      1.0  0.790930259229029  0.5012737777507233  0.22622241691338443  1.0000
  H   H978      1.0  0.7904363106394842  0.4516796794466926  0.14712489734247736  1.0000
  H   H979      1.0  0.8374810333983828  0.4338529337100337  0.19436185652836382  1.0000
  H   H980      1.0  0.7943249525773101  0.35039407810994755  0.16053058260190128  1.0000
  H   H981      1.0  0.7827691474426436  0.36018640364508475  0.2282799484833865  1.0000
  H   H982      1.0  0.6902929041822397  0.3874203193455518  0.20620481210461641  1.0000
  H   H983      1.0  0.707254462138131  0.39773416141404766  0.13521071808354293  1.0000
  H   H984      1.0  0.7048284031604524  0.33219662440535314  0.1645721564078094  1.0000
  O   O124      1.0  0.4956048578674053  0.9996925620774633  0.32827321000669446  1.0000
  C   C370      1.0  0.5061486862189114  0.042017109464916255  0.3665528276566956  1.0000
  C   C371      1.0  0.455252445918456  0.07508068860293377  0.3720484140734034  1.0000
  C   C372      1.0  0.40819092481359454  0.04685904630330965  0.4033413846430946  1.0000
  H   H985      1.0  0.47470816798362997  0.9723788241137892  0.3435476982323646  1.0000
  H   H986      1.0  0.52157876083861  0.03013613881862013  0.40603921801108045  1.0000
  H   H987      1.0  0.5327614686934159  0.0710622838462105  0.3456555687755223  1.0000
  H   H988      1.0  0.46765986281840444  0.10990641967988518  0.39490865075571263  1.0000
  H   H989      1.0  0.44198643977849444  0.09022990714080177  0.3327108604758486  1.0000
  H   H990      1.0  0.3760110379992569  0.07557858080966474  0.40195596981783055  1.0000
  H   H991      1.0  0.39699532405827853  0.007300493480179599  0.3889634820392367  1.0000
  H   H992      1.0  0.4124890285714858  0.04479808285591966  0.4444831820702569  1.0000
  O   O125      1.0  0.7388039252833167  0.2344638436169085  0.6649569709546936  1.0000
  C   C373      1.0  0.7416413427390541  0.18636698661628034  0.630093888041563  1.0000
  C   C374      1.0  0.7249628210276301  0.2061311140188544  0.5745369884636741  1.0000
  C   C375      1.0  0.728127641812856  0.1718709246051729  0.5244552741015872  1.0000
  H   H993      1.0  0.7139366101217383  0.25972615470453675  0.6496483544161884  1.0000
  H   H994      1.0  0.7818994856166476  0.17218099836541143  0.6241253610077251  1.0000
  H   H995      1.0  0.7168324247625584  0.15009961454630782  0.6390278895507084  1.0000
  H   H996      1.0  0.6839055481440582  0.2217772959179455  0.5769726794420299  1.0000
  H   H997      1.0  0.7521629877468607  0.24164274581245074  0.5663223714383887  1.0000
  H   H998      1.0  0.7058349571717651  0.1900956619536932  0.4932149745593767  1.0000
  H   H999      1.0  0.7720051167004927  0.16268209934099379  0.5112511916581848  1.0000
  H   H1000     1.0  0.7049729547426087  0.1359816642288876  0.5320611203733776  1.0000
  O   O126      1.0  0.8528434203898092  0.20228177663993419  0.3124090245678397  1.0000
  C   C376      1.0  0.8228094005004284  0.15569009628936945  0.30467957782633015  1.0000
  C   C377      1.0  0.7891703824844427  0.1368340728291002  0.35169341408635996  1.0000
  C   C378      1.0  0.7550273286007921  0.0899484442874622  0.33939592819942327  1.0000
  H   H1001     1.0  0.8861375162388795  0.20277291920946677  0.29194106050548396  1.0000
  H   H1002     1.0  0.7902269911690233  0.1641026285822005  0.2773969347155685  1.0000
  H   H1003     1.0  0.8498476478965198  0.1259038757608694  0.286735146648109  1.0000
  H   H1004     1.0  0.8192681082131763  0.12499577181856454  0.3825994469419285  1.0000
  H   H1005     1.0  0.7672358918447538  0.17029317871883234  0.37024379130981944  1.0000
  H   H1006     1.0  0.7209843844612991  0.10567812685292519  0.3216561332971464  1.0000
  H   H1007     1.0  0.7727902170040319  0.06149399576803783  0.313493125648012  1.0000
  H   H1008     1.0  0.7372011896356422  0.07162306676674164  0.3755036279094262  1.0000
  O   O127      1.0  0.8416155494102959  0.3364653784742591  0.008129432428808408  1.0000
  C   C379      1.0  0.8250046016071889  0.29179887875176375  0.03740077432930411  1.0000
  C   C380      1.0  0.8234695913618975  0.2425510867375992  0.0017434163775111615  1.0000
  C   C381      1.0  0.8792664503833392  0.22239859972384077  0.9923752885419429  1.0000
  H   H1009     1.0  0.8804412184751693  0.34085460491887315  0.014530888150940032  1.0000
  H   H1010     1.0  0.8500762309707126  0.2850430330800167  0.07307317353446617  1.0000
  H   H1011     1.0  0.7816630149104601  0.2970082244865266  0.05052367901534866  1.0000
  H   H1012     1.0  0.7976853657210675  0.21466801498753524  0.020187615346478855  1.0000
  H   H1013     1.0  0.8108197127817607  0.2537166165172213  0.9606425191672266  1.0000
  H   H1014     1.0  0.89876904177017  0.24987217108448387  0.962800653135318  1.0000
  H   H1015     1.0  0.9028816400500274  0.22142039100778343  0.029053862824441334  1.0000
  H   H1016     1.0  0.8781108695517749  0.1822879285659934  0.9760730112902571  1.0000
  O   O128      1.0  0.5596950563542766  0.12842608138203088  0.15298363610968072  1.0000
  C   C382      1.0  0.5524754277027671  0.10598959388142548  0.2053653910390024  1.0000
  C   C383      1.0  0.6022159356775921  0.0676972634537803  0.21478680025216032  1.0000
  C   C384      1.0  0.600904654732044  0.018947620907923585  0.17912166719546146  1.0000
  H   H1017     1.0  0.5680948758694638  0.1658899786365121  0.16246963269065504  1.0000
  H   H1018     1.0  0.5465535039813202  0.1339109176843766  0.23576769181028276  1.0000
  H   H1019     1.0  0.517973345208673  0.08009271629872661  0.2104463389919519  1.0000
  H   H1020     1.0  0.6404764416155496  0.0894677297582928  0.213442926610794  1.0000
  H   H1021     1.0  0.603133604820041  0.05278817931324224  0.2556709484207878  1.0000
  H   H1022     1.0  0.6254072155231991  0.9864019073360332  0.19425046584417932  1.0000
  H   H1023     1.0  0.5590531052193211  0.0037182441160719423  0.1820549469947938  1.0000
  H   H1024     1.0  0.6119511153447755  0.02595480517593878  0.13709374081565007  1.0000
