@<TRIPOS>MOLECULE
*****
    6     5     1     0     0
SMALL
bcc


@<TRIPOS>ATOM
      1 C            0.9020     0.0120    -0.0200 c3         1 UNL       0.116700
      2 O            0.4280    -1.2080    -0.5590 oh         1 UNL      -0.598800
      3 H            0.5360     0.1140     1.0040 h1         1 UNL       0.028700
      4 H1           0.5330     0.8460    -0.6220 h1         1 UNL       0.028700
      5 H2           1.9950     0.0090    -0.0140 h1         1 UNL       0.028700
      6 H3           0.7690    -1.2710    -1.4670 ho         1 UNL       0.396000
@<TRIPOS>BOND
     1     1     2 1   
     2     1     3 1   
     3     1     4 1   
     4     1     5 1   
     5     2     6 1   
@<TRIPOS>SUBSTRUCTURE
     1 UNL         1 TEMP              0 ****  ****    0 ROOT
