@<TRIPOS>MOLECULE
*****
    3     2     1     0     0
SMALL
bcc


@<TRIPOS>ATOM
      1 O            0.9580     0.0630    -0.0640 oh         1 HOH      -0.785000
      2 H            0.6790    -0.2130    -0.9500 ho         0 HOH       0.392000
      3 H1           1.9260     0.0490    -0.1080 ho         0 HOH       0.392000
@<TRIPOS>BOND
     1     1     2 1   
     2     1     3 1   
@<TRIPOS>SUBSTRUCTURE
     1 HOH         1 TEMP              0 ****  ****    0 ROOT
