@<TRIPOS>MOLECULE
*****
 3 2 0 0 0
SMALL
GASTEIGER

@<TRIPOS>ATOM
      1 O           0.9582    0.0628   -0.0639 O.3     1  HOH1       -0.4105
      2 H           0.6794   -0.2133   -0.9499 H       0  HOH0        0.2052
      3 H           1.9261    0.0490   -0.1083 H       0  HOH0        0.2052
@<TRIPOS>BOND
     1     1     2    1
     2     1     3    1
