@<TRIPOS>MOLECULE
*****
 20 19 0 0 0
SMALL
GASTEIGER

@<TRIPOS>ATOM
      1 C           1.2250   -1.3781   -1.9025 C.3     1  UNL1       -0.0653
      2 C           0.5955   -1.3066   -0.5193 C.3     1  UNL1       -0.0559
      3 C           1.0566   -2.4631    0.3706 C.3     1  UNL1       -0.0533
      4 C           0.4897   -2.4074    1.7945 C.3     1  UNL1       -0.0533
      5 C          -1.0356   -2.4949    1.8520 C.3     1  UNL1       -0.0559
      6 C          -1.5436   -2.4926    3.2856 C.3     1  UNL1       -0.0653
      7 H           2.3162   -1.3057   -1.8439 H       1  UNL1        0.0230
      8 H           0.8624   -0.5526   -2.5250 H       1  UNL1        0.0230
      9 H           0.9666   -2.3178   -2.4027 H       1  UNL1        0.0230
     10 H           0.8561   -0.3502   -0.0522 H       1  UNL1        0.0263
     11 H          -0.4930   -1.3266   -0.6384 H       1  UNL1        0.0263
     12 H           0.7817   -3.4190   -0.0936 H       1  UNL1        0.0265
     13 H           2.1531   -2.4482    0.4370 H       1  UNL1        0.0265
     14 H           0.9187   -3.2400    2.3647 H       1  UNL1        0.0265
     15 H           0.8265   -1.4844    2.2838 H       1  UNL1        0.0265
     16 H          -1.4871   -1.6482    1.3270 H       1  UNL1        0.0263
     17 H          -1.3746   -3.4103    1.3502 H       1  UNL1        0.0263
     18 H          -1.2379   -1.5789    3.8071 H       1  UNL1        0.0230
     19 H          -2.6374   -2.5369    3.2973 H       1  UNL1        0.0230
     20 H          -1.1633   -3.3530    3.8413 H       1  UNL1        0.0230
@<TRIPOS>BOND
     1     1     2    1
     2     2     3    1
     3     3     4    1
     4     4     5    1
     5     5     6    1
     6     1     7    1
     7     1     8    1
     8     1     9    1
     9     2    10    1
    10     2    11    1
    11     3    12    1
    12     3    13    1
    13     4    14    1
    14     4    15    1
    15     5    16    1
    16     5    17    1
    17     6    18    1
    18     6    19    1
    19     6    20    1
