@<TRIPOS>MOLECULE
*****
 23 22 0 0 0
SMALL
GASTEIGER

@<TRIPOS>ATOM
      1 O           3.9253    1.6311   -2.7444 O.3     1  UNL1       -0.3949
      2 C           3.8616    0.2162   -2.5892 C.3     1  UNL1        0.0463
      3 C           2.4600   -0.1769   -2.1452 C.3     1  UNL1       -0.0062
      4 C           2.2343   -1.6851   -2.0810 C.3     1  UNL1        0.0497
      5 O           3.0855   -2.4079   -1.1981 O.3     1  UNL1       -0.3796
      6 C           3.0764   -2.0365    0.1757 C.3     1  UNL1        0.0497
      7 C           1.7232   -2.1077    0.8814 C.3     1  UNL1       -0.0062
      8 C           1.0905   -3.4918    0.8550 C.3     1  UNL1        0.0463
      9 O          -0.1027   -3.4799    1.6360 O.3     1  UNL1       -0.3949
     10 H           3.3295    1.8710   -3.4743 H       1  UNL1        0.2094
     11 H           4.1309   -0.2433   -3.5451 H       1  UNL1        0.0558
     12 H           4.6099   -0.0690   -1.8442 H       1  UNL1        0.0558
     13 H           2.2535    0.2879   -1.1747 H       1  UNL1        0.0309
     14 H           1.7309    0.2577   -2.8405 H       1  UNL1        0.0309
     15 H           1.1908   -1.8970   -1.8302 H       1  UNL1        0.0560
     16 H           2.3988   -2.1064   -3.0804 H       1  UNL1        0.0560
     17 H           3.7691   -2.7194    0.6800 H       1  UNL1        0.0560
     18 H           3.5044   -1.0342    0.2825 H       1  UNL1        0.0560
     19 H           1.8528   -1.7928    1.9243 H       1  UNL1        0.0309
     20 H           1.0214   -1.3894    0.4426 H       1  UNL1        0.0309
     21 H           0.8153   -3.7816   -0.1628 H       1  UNL1        0.0558
     22 H           1.7596   -4.2555    1.2635 H       1  UNL1        0.0558
     23 H           0.1590   -3.4894    2.5730 H       1  UNL1        0.2094
@<TRIPOS>BOND
     1     1     2    1
     2     2     3    1
     3     3     4    1
     4     4     5    1
     5     5     6    1
     6     6     7    1
     7     7     8    1
     8     8     9    1
     9     1    10    1
    10     2    11    1
    11     2    12    1
    12     3    13    1
    13     3    14    1
    14     4    15    1
    15     4    16    1
    16     6    17    1
    17     6    18    1
    18     7    19    1
    19     7    20    1
    20     8    21    1
    21     8    22    1
    22     9    23    1
