@<TRIPOS>MOLECULE
*****
   15    14     1     0     0
SMALL
bcc


@<TRIPOS>ATOM
      1 C            1.1150    -2.4770    -0.0700 c3         1 UNL      -0.093100
      2 C1           0.5760    -1.2580     0.6620 c3         1 UNL      -0.077400
      3 C2           1.0240    -1.2350     2.1210 c3         1 UNL      -0.120400
      4 C3           0.5040    -0.0040     2.8540 c3         1 UNL       0.126400
      5 O            0.9380    -0.0290     4.2070 oh         1 UNL      -0.598800
      6 H            2.2100    -2.4740    -0.0830 hc         1 UNL       0.034033
      7 H1           0.7640    -2.4840    -1.1070 hc         1 UNL       0.034033
      8 H2           0.7800    -3.4040     0.4070 hc         1 UNL       0.034033
      9 H3           0.9190    -0.3520     0.1500 hc         1 UNL       0.040200
     10 H4          -0.5190    -1.2650     0.6100 hc         1 UNL       0.040200
     11 H5           0.6770    -2.1390     2.6370 hc         1 UNL       0.046700
     12 H6           2.1190    -1.2580     2.1830 hc         1 UNL       0.046700
     13 H7           0.8890     0.9120     2.3950 h1         1 UNL       0.043700
     14 H8          -0.5890     0.0390     2.8400 h1         1 UNL       0.043700
     15 H9           0.5190    -0.7970     4.6330 ho         1 UNL       0.396000
@<TRIPOS>BOND
     1     1     2 1   
     2     2     3 1   
     3     3     4 1   
     4     4     5 1   
     5     1     6 1   
     6     1     7 1   
     7     1     8 1   
     8     2     9 1   
     9     2    10 1   
    10     3    11 1   
    11     3    12 1   
    12     4    13 1   
    13     4    14 1   
    14     5    15 1   
@<TRIPOS>SUBSTRUCTURE
     1 UNL         1 TEMP              0 ****  ****    0 ROOT
