@<TRIPOS>MOLECULE
*****
 15 14 0 0 0
SMALL
GASTEIGER

@<TRIPOS>ATOM
      1 C           1.1154   -2.4774   -0.0698 C.3     1  UNL1       -0.0652
      2 C           0.5758   -1.2585    0.6617 C.3     1  UNL1       -0.0538
      3 C           1.0238   -1.2350    2.1210 C.3     1  UNL1       -0.0300
      4 C           0.5045   -0.0043    2.8538 C.3     1  UNL1        0.0442
      5 O           0.9380   -0.0288    4.2072 O.3     1  UNL1       -0.3950
      6 H           2.2100   -2.4745   -0.0828 H       1  UNL1        0.0230
      7 H           0.7644   -2.4836   -1.1067 H       1  UNL1        0.0230
      8 H           0.7797   -3.4036    0.4073 H       1  UNL1        0.0230
      9 H           0.9194   -0.3518    0.1504 H       1  UNL1        0.0263
     10 H          -0.5191   -1.2646    0.6101 H       1  UNL1        0.0263
     11 H           0.6766   -2.1392    2.6368 H       1  UNL1        0.0287
     12 H           2.1192   -1.2577    2.1834 H       1  UNL1        0.0287
     13 H           0.8894    0.9119    2.3948 H       1  UNL1        0.0557
     14 H          -0.5892    0.0389    2.8398 H       1  UNL1        0.0557
     15 H           0.5188   -0.7972    4.6331 H       1  UNL1        0.2094
@<TRIPOS>BOND
     1     1     2    1
     2     2     3    1
     3     3     4    1
     4     4     5    1
     5     1     6    1
     6     1     7    1
     7     1     8    1
     8     2     9    1
     9     2    10    1
    10     3    11    1
    11     3    12    1
    12     4    13    1
    13     4    14    1
    14     5    15    1
