@<TRIPOS>MOLECULE
*****
   24    24     1     0     0
SMALL
bcc


@<TRIPOS>ATOM
      1 C            1.3330     0.1080     0.1280 c3         1 UNL       0.103400
      2 C1           0.4630    -0.8430     0.9740 c3         1 UNL       0.072100
      3 C2           0.6750    -2.3440     0.6960 c3         1 UNL       0.097100
      4 C3          -0.0840    -2.8270    -0.5480 c3         1 UNL       0.080100
      5 C4          -1.5530    -2.3800    -0.4730 c3         1 UNL       0.101100
      6 C5          -1.6460    -0.8670    -0.2110 c3         1 UNL       0.300900
      7 O           -0.9280    -0.4790     0.9460 os         1 UNL      -0.441600
      8 O1          -1.1850    -0.1730    -1.3630 oh         1 UNL      -0.657800
      9 O2          -2.2420    -2.7340    -1.6780 oh         1 UNL      -0.573800
     10 O3           0.6090    -2.3500    -1.7160 oh         1 UNL      -0.604800
     11 O4           2.0650    -2.6540     0.5740 oh         1 UNL      -0.585800
     12 O5           0.9980     1.4740     0.3940 oh         1 UNL      -0.601800
     13 H            1.2040    -0.0400    -0.9460 h1         1 UNL       0.058200
     14 H1           2.3950    -0.0310     0.3500 h1         1 UNL       0.058200
     15 H2           0.7730    -0.6640     2.0110 h1         1 UNL       0.084700
     16 H3           0.2890    -2.9000     1.5580 h1         1 UNL       0.085700
     17 H4          -0.0310    -3.9190    -0.6180 h1         1 UNL       0.101700
     18 H5          -2.0310    -2.9140     0.3550 h1         1 UNL       0.097700
     19 H6          -2.6960    -0.5890    -0.0740 h2         1 UNL       0.090700
     20 H7          -1.1690     0.7650    -1.0840 ho         1 UNL       0.452000
     21 H8          -2.1240    -1.9920    -2.3030 ho         1 UNL       0.423000
     22 H9           0.0410    -1.6790    -2.1460 ho         1 UNL       0.425000
     23 H10          2.2510    -2.6750    -0.3880 ho         1 UNL       0.419000
     24 H11          1.0340     1.5960     1.3590 ho         1 UNL       0.412000
@<TRIPOS>BOND
     1     1     2 1   
     2     2     3 1   
     3     3     4 1   
     4     4     5 1   
     5     5     6 1   
     6     6     7 1   
     7     2     7 1   
     8     6     8 1   
     9     5     9 1   
    10     4    10 1   
    11     3    11 1   
    12     1    12 1   
    13     1    13 1   
    14     1    14 1   
    15     2    15 1   
    16     3    16 1   
    17     4    17 1   
    18     5    18 1   
    19     6    19 1   
    20     8    20 1   
    21     9    21 1   
    22    10    22 1   
    23    11    23 1   
    24    12    24 1   
@<TRIPOS>SUBSTRUCTURE
     1 UNL         1 TEMP              0 ****  ****    0 ROOT
