@<TRIPOS>MOLECULE
*****
 24 24 0 0 0
SMALL
GASTEIGER

@<TRIPOS>ATOM
      1 C           1.3332    0.1078    0.1282 C.3     1  UNL1        0.0730
      2 C           0.4633   -0.8429    0.9743 C.3     1  UNL1        0.1130
      3 C           0.6755   -2.3438    0.6956 C.3     1  UNL1        0.1119
      4 C          -0.0844   -2.8268   -0.5477 C.3     1  UNL1        0.1141
      5 C          -1.5528   -2.3802   -0.4734 C.3     1  UNL1        0.1339
      6 C          -1.6464   -0.8673   -0.2115 C.3     1  UNL1        0.1854
      7 O          -0.9278   -0.4786    0.9459 O.3     1  UNL1       -0.3407
      8 O          -1.1845   -0.1731   -1.3635 O.3     1  UNL1       -0.3649
      9 O          -2.2423   -2.7336   -1.6782 O.3     1  UNL1       -0.3841
     10 O           0.6085   -2.3505   -1.7164 O.3     1  UNL1       -0.3864
     11 O           2.0653   -2.6539    0.5743 O.3     1  UNL1       -0.3865
     12 O           0.9978    1.4742    0.3937 O.3     1  UNL1       -0.3924
     13 H           1.2035   -0.0401   -0.9457 H       1  UNL1        0.0584
     14 H           2.3946   -0.0308    0.3500 H       1  UNL1        0.0584
     15 H           0.7726   -0.6636    2.0114 H       1  UNL1        0.0647
     16 H           0.2888   -2.9000    1.5576 H       1  UNL1        0.0647
     17 H          -0.0312   -3.9190   -0.6176 H       1  UNL1        0.0648
     18 H          -2.0314   -2.9137    0.3547 H       1  UNL1        0.0671
     19 H          -2.6963   -0.5892   -0.0744 H       1  UNL1        0.0935
     20 H          -1.1692    0.7646   -1.0839 H       1  UNL1        0.2126
     21 H          -2.1238   -1.9916   -2.3025 H       1  UNL1        0.2101
     22 H           0.0413   -1.6795   -2.1455 H       1  UNL1        0.2100
     23 H           2.2514   -2.6748   -0.3883 H       1  UNL1        0.2100
     24 H           1.0343    1.5957    1.3590 H       1  UNL1        0.2095
@<TRIPOS>BOND
     1     1     2    1
     2     2     3    1
     3     3     4    1
     4     4     5    1
     5     5     6    1
     6     6     7    1
     7     2     7    1
     8     6     8    1
     9     5     9    1
    10     4    10    1
    11     3    11    1
    12     1    12    1
    13     1    13    1
    14     1    14    1
    15     2    15    1
    16     3    16    1
    17     4    17    1
    18     5    18    1
    19     6    19    1
    20     8    20    1
    21     9    21    1
    22    10    22    1
    23    11    23    1
    24    12    24    1
