@<TRIPOS>MOLECULE
*****
 343 342 0 0 0
SMALL
GASTEIGER

@<TRIPOS>ATOM
      1 O          11.2160  -16.1426   16.4859 O.3     1  UNL1       -0.3925
      2 C          10.6407  -15.8274   17.7435 C.3     1  UNL1        0.0701
      3 C          10.7823  -14.3304   17.9824 C.3     1  UNL1        0.0790
      4 C          10.0484  -14.0677   19.3194 C.3     1  UNL1       -0.0365
      5 O          12.1285  -13.8295   18.0469 O.3     1  UNL1       -0.3720
      6 C          13.1932  -14.3165   17.1728 C.3     1  UNL1        0.0740
      7 C          13.2284  -13.8708   15.6636 C.3     1  UNL1        0.0793
      8 C          13.0372  -12.3464   15.6112 C.3     1  UNL1       -0.0365
      9 O          14.4580  -14.0173   14.9124 O.3     1  UNL1       -0.3720
     10 C          15.1571  -15.2328   14.6387 C.3     1  UNL1        0.0740
     11 C          14.5096  -16.2892   13.7446 C.3     1  UNL1        0.0793
     12 C          14.4973  -15.8324   12.2065 C.3     1  UNL1       -0.0365
     13 O          15.2717  -17.4664   13.6094 O.3     1  UNL1       -0.3720
     14 C          15.3524  -18.3336   14.7239 C.3     1  UNL1        0.0740
     15 C          14.0051  -18.8931   15.2702 C.3     1  UNL1        0.0793
     16 C          13.4676  -19.7325   14.0537 C.3     1  UNL1       -0.0365
     17 O          14.4004  -19.5192   16.5094 O.3     1  UNL1       -0.3720
     18 C          13.6350  -19.8392   17.7081 C.3     1  UNL1        0.0740
     19 C          13.0289  -18.7659   18.7635 C.3     1  UNL1        0.0793
     20 C          12.0273  -19.1143   19.9357 C.3     1  UNL1       -0.0365
     21 O          14.1781  -18.1854   19.3752 O.3     1  UNL1       -0.3720
     22 C          14.2345  -18.0801   20.7979 C.3     1  UNL1        0.0740
     23 C          15.5966  -17.6009   21.2113 C.3     1  UNL1        0.0793
     24 C          16.1399  -16.6749   20.1016 C.3     1  UNL1       -0.0365
     25 O          15.4188  -16.9692   22.5030 O.3     1  UNL1       -0.3720
     26 C          16.4165  -15.9720   22.8275 C.3     1  UNL1        0.0740
     27 C          16.0388  -15.1994   24.1642 C.3     1  UNL1        0.0793
     28 C          17.3501  -14.3200   24.2954 C.3     1  UNL1       -0.0365
     29 O          14.9632  -14.2485   24.3576 O.3     1  UNL1       -0.3720
     30 C          13.5787  -14.2021   23.9090 C.3     1  UNL1        0.0740
     31 C          12.3192  -14.7291   24.8372 C.3     1  UNL1        0.0793
     32 C          12.5548  -14.4054   26.3307 C.3     1  UNL1       -0.0365
     33 O          10.8957  -14.8094   24.3115 O.3     1  UNL1       -0.3720
     34 C           9.7441  -13.8740   24.1386 C.3     1  UNL1        0.0740
     35 C           8.4251  -14.5479   23.1869 C.3     1  UNL1        0.0793
     36 C           8.1215  -15.9054   23.8663 C.3     1  UNL1       -0.0365
     37 O           7.1549  -13.7045   23.0522 O.3     1  UNL1       -0.3720
     38 C           6.1771  -13.7130   21.8145 C.3     1  UNL1        0.0740
     39 C           5.0366  -12.3433   21.7656 C.3     1  UNL1        0.0793
     40 C           6.0919  -11.2554   22.1280 C.3     1  UNL1       -0.0365
     41 O           4.2984  -11.6467   20.6587 O.3     1  UNL1       -0.3720
     42 C           3.1289  -11.4555   19.7155 C.3     1  UNL1        0.0740
     43 C           1.3834  -11.3267   19.8311 C.3     1  UNL1        0.0793
     44 C           1.1348  -10.3632   21.0387 C.3     1  UNL1       -0.0365
     45 O           0.3589  -10.7926   18.8265 O.3     1  UNL1       -0.3720
     46 C          -0.2748  -10.6705   17.4581 C.3     1  UNL1        0.0740
     47 C          -1.1606  -11.7898   16.4605 C.3     1  UNL1        0.0793
     48 C          -2.1480  -12.4560   17.4769 C.3     1  UNL1       -0.0365
     49 O          -2.0872  -11.5512   15.2751 O.3     1  UNL1       -0.3720
     50 C          -2.4792  -11.0656   13.8901 C.3     1  UNL1        0.0740
     51 C          -1.8010  -11.2833   12.2894 C.3     1  UNL1        0.0793
     52 C          -1.5555  -12.8278   12.2502 C.3     1  UNL1       -0.0365
     53 O          -2.3756  -11.0588   10.8934 O.3     1  UNL1       -0.3720
     54 C          -2.9957  -10.2822    9.7515 C.3     1  UNL1        0.0740
     55 C          -2.5259   -8.8892    8.7660 C.3     1  UNL1        0.0793
     56 C          -1.0074   -9.0409    8.5999 C.3     1  UNL1       -0.0365
     57 O          -2.9621   -8.6707    7.2445 O.3     1  UNL1       -0.3720
     58 C          -4.0609   -7.7750    6.7030 C.3     1  UNL1        0.0740
     59 C          -4.0139   -6.9513    5.1118 C.3     1  UNL1        0.0793
     60 C          -2.7458   -7.2013    4.3177 C.3     1  UNL1       -0.0365
     61 O          -5.2154   -7.2164    4.2108 O.3     1  UNL1       -0.3720
     62 C          -5.2490   -6.7731    2.7644 C.3     1  UNL1        0.0740
     63 C          -6.3924   -7.5682    1.8575 C.3     1  UNL1        0.0793
     64 C          -7.7377   -7.0152    2.3898 C.3     1  UNL1       -0.0365
     65 O          -6.1765   -7.4296    0.3951 O.3     1  UNL1       -0.3720
     66 C          -6.7408   -8.2853   -0.7026 C.3     1  UNL1        0.0740
     67 C          -6.1209   -9.7855   -1.0514 C.3     1  UNL1        0.0793
     68 C          -7.2120  -10.8060   -0.6885 C.3     1  UNL1       -0.0365
     69 O          -5.5784  -10.0145   -2.4337 O.3     1  UNL1       -0.3720
     70 C          -5.1434  -11.3794   -2.8290 C.3     1  UNL1        0.0740
     71 C          -3.6618  -11.7218   -3.5040 C.3     1  UNL1        0.0793
     72 C          -3.7429  -11.0649   -4.9245 C.3     1  UNL1       -0.0365
     73 O          -2.3432  -11.4017   -2.8832 O.3     1  UNL1       -0.3720
     74 C          -1.5280  -12.3933   -2.0352 C.3     1  UNL1        0.0740
     75 C           0.1900  -12.1251   -1.9545 C.3     1  UNL1        0.0793
     76 C           0.4244  -10.6391   -2.2894 C.3     1  UNL1       -0.0365
     77 O           1.3012  -12.8884   -1.1973 O.3     1  UNL1       -0.3720
     78 C           1.8305  -13.0549    0.2297 C.3     1  UNL1        0.0740
     79 C           3.0423  -14.3492    0.4184 C.3     1  UNL1        0.0793
     80 C           4.1690  -13.8982   -0.5899 C.3     1  UNL1       -0.0365
     81 O           3.8800  -14.8420    1.5630 O.3     1  UNL1       -0.3720
     82 C           4.1347  -15.3601    2.9467 C.3     1  UNL1        0.0740
     83 C           3.6225  -16.7751    3.8089 C.3     1  UNL1        0.0793
     84 C           3.8718  -17.9242    2.7878 C.3     1  UNL1       -0.0365
     85 O           4.1466  -17.4241    5.0714 O.3     1  UNL1       -0.3720
     86 C           4.5791  -17.5008    6.5103 C.3     1  UNL1        0.0740
     87 C           3.8062  -17.1641    8.0104 C.3     1  UNL1        0.0793
     88 C           2.4253  -17.8745    7.8606 C.3     1  UNL1       -0.0365
     89 O           4.1676  -17.5993    9.4165 O.3     1  UNL1       -0.3720
     90 C           5.0484  -17.6464   10.6344 C.3     1  UNL1        0.0740
     91 C           5.7835  -16.4415   11.5594 C.3     1  UNL1        0.0793
     92 C           4.6632  -15.3855   11.8127 C.3     1  UNL1       -0.0365
     93 O           6.4392  -16.4699   12.9181 O.3     1  UNL1       -0.3720
     94 C           7.2042  -17.1782   13.9608 C.3     1  UNL1        0.0740
     95 C           8.8572  -17.4411   14.0671 C.3     1  UNL1        0.0793
     96 C           9.5988  -16.0747   13.8865 C.3     1  UNL1       -0.0365
     97 O           9.3600  -18.6018   14.9877 O.3     1  UNL1       -0.3720
     98 C          10.0315  -18.7753   16.3498 C.3     1  UNL1        0.0740
     99 C          10.2743  -20.4559   16.9326 C.3     1  UNL1        0.0793
    100 C          11.1031  -21.1569   15.8761 C.3     1  UNL1       -0.0365
    101 O          10.6581  -20.7737   18.3980 O.3     1  UNL1       -0.3720
    102 C          11.6131  -21.7394   19.1441 C.3     1  UNL1        0.0740
    103 C          11.2551  -22.0479   20.8872 C.3     1  UNL1        0.0793
    104 C          10.5851  -23.4144   20.7273 C.3     1  UNL1       -0.0365
    105 O          12.4412  -22.0563   21.8175 O.3     1  UNL1       -0.3720
    106 C          12.6920  -21.8530   23.3166 C.3     1  UNL1        0.0740
    107 C          12.3951  -20.5789   24.3638 C.3     1  UNL1        0.0793
    108 C          11.0412  -20.7263   25.0904 C.3     1  UNL1       -0.0365
    109 O          13.5598  -20.0871   25.2043 O.3     1  UNL1       -0.3720
    110 C          13.9444  -20.4008   26.5858 C.3     1  UNL1        0.0740
    111 C          15.1866  -19.4836   27.2133 C.3     1  UNL1        0.0793
    112 C          15.4984  -19.7623   28.7295 C.3     1  UNL1       -0.0365
    113 O          16.3158  -19.0694   26.3957 O.3     1  UNL1       -0.3720
    114 C          17.4442  -19.8176   25.8332 C.3     1  UNL1        0.0740
    115 C          18.1889  -18.8112   24.7576 C.3     1  UNL1        0.0793
    116 C          18.6636  -17.6049   25.6486 C.3     1  UNL1       -0.0365
    117 O          19.3654  -19.0344   23.9323 O.3     1  UNL1       -0.3720
    118 C          19.9046  -19.8059   22.8205 C.3     1  UNL1        0.0740
    119 C          19.3686  -20.0781   21.2788 C.3     1  UNL1        0.0793
    120 C          18.9260  -18.7771   20.6501 C.3     1  UNL1       -0.0365
    121 O          20.4143  -20.5961   20.3517 O.3     1  UNL1       -0.3720
    122 C          20.1492  -21.4575   19.1602 C.3     1  UNL1        0.0740
    123 C          19.3600  -20.9768   17.8463 C.3     1  UNL1        0.0793
    124 C          20.1000  -19.8125   17.1944 C.3     1  UNL1       -0.0365
    125 O          19.2041  -21.8151   16.6678 O.3     1  UNL1       -0.3720
    126 C          18.8001  -23.1710   16.5128 C.3     1  UNL1        0.0740
    127 C          17.3091  -23.5871   16.6107 C.3     1  UNL1        0.0793
    128 C          16.4130  -22.8677   15.5793 C.3     1  UNL1       -0.0365
    129 O          16.9773  -24.9670   16.3285 O.3     1  UNL1       -0.3720
    130 C          17.7806  -26.0405   16.7974 C.3     1  UNL1        0.0740
    131 C          17.6883  -26.3558   18.3040 C.3     1  UNL1        0.0793
    132 C          16.2538  -26.6795   18.7370 C.3     1  UNL1       -0.0365
    133 O          18.4406  -27.5148   18.7129 O.3     1  UNL1       -0.3720
    134 C          19.8013  -27.6224   18.3019 C.3     1  UNL1        0.0738
    135 C          20.7310  -26.5850   18.9470 C.3     1  UNL1        0.0757
    136 C          22.1924  -26.9254   18.6758 C.3     1  UNL1       -0.0368
    137 O          20.4488  -25.3002   18.4007 O.3     1  UNL1       -0.3898
    138 H          21.2545  -24.7580   18.4223 H       1  UNL1        0.2099
    139 H          10.4758  -16.3943   15.9193 H       1  UNL1        0.2095
    140 H           9.5861  -16.1129   17.7275 H       1  UNL1        0.0583
    141 H          11.1416  -16.4058   18.5154 H       1  UNL1        0.0583
    142 H          10.2607  -13.7857   17.1794 H       1  UNL1        0.0616
    143 H          10.5618  -14.5257   20.1560 H       1  UNL1        0.0255
    144 H           9.9388  -12.9993   19.5246 H       1  UNL1        0.0255
    145 H           9.0220  -14.4799   19.2832 H       1  UNL1        0.0255
    146 H          14.1026  -13.9202   17.6361 H       1  UNL1        0.0586
    147 H          13.2972  -15.4012   17.2725 H       1  UNL1        0.0586
    148 H          12.4179  -14.3389   15.0990 H       1  UNL1        0.0616
    149 H          13.8518  -11.8428   16.1508 H       1  UNL1        0.0255
    150 H          13.0972  -11.9837   14.5765 H       1  UNL1        0.0255
    151 H          12.0869  -12.0279   16.0396 H       1  UNL1        0.0255
    152 H          16.0890  -14.9040   14.1511 H       1  UNL1        0.0586
    153 H          15.4888  -15.6805   15.5779 H       1  UNL1        0.0586
    154 H          13.5009  -16.4894   13.9895 H       1  UNL1        0.0616
    155 H          15.2465  -16.3691   11.6013 H       1  UNL1        0.0255
    156 H          13.5309  -16.0996   11.7614 H       1  UNL1        0.0255
    157 H          14.6544  -14.7626   12.0641 H       1  UNL1        0.0255
    158 H          15.9476  -19.2180   14.3912 H       1  UNL1        0.0586
    159 H          15.9539  -17.9001   15.5223 H       1  UNL1        0.0586
    160 H          13.3057  -18.0795   15.4659 H       1  UNL1        0.0616
    161 H          13.8403  -20.7617   14.0176 H       1  UNL1        0.0255
    162 H          12.3776  -19.7426   13.9953 H       1  UNL1        0.0255
    163 H          13.7399  -19.2737   13.0858 H       1  UNL1        0.0255
    164 H          12.9519  -20.6198   17.4355 H       1  UNL1        0.0586
    165 H          14.4103  -20.3648   18.2869 H       1  UNL1        0.0586
    166 H          12.5373  -18.0016   18.1670 H       1  UNL1        0.0616
    167 H          12.4270  -19.8708   20.6231 H       1  UNL1        0.0255
    168 H          11.8426  -18.2462   20.5950 H       1  UNL1        0.0255
    169 H          10.9976  -19.3438   19.6932 H       1  UNL1        0.0255
    170 H          13.4926  -17.3674   21.1807 H       1  UNL1        0.0586
    171 H          14.0836  -19.0441   21.3122 H       1  UNL1        0.0586
    172 H          16.2269  -18.4899   21.3033 H       1  UNL1        0.0616
    173 H          15.6018  -15.7247   20.1122 H       1  UNL1        0.0255
    174 H          17.2048  -16.4843   20.2359 H       1  UNL1        0.0255
    175 H          16.0491  -17.1136   19.1002 H       1  UNL1        0.0255
    176 H          17.3536  -16.5276   22.9637 H       1  UNL1        0.0586
    177 H          16.4813  -15.2626   22.0331 H       1  UNL1        0.0586
    178 H          16.0234  -15.9177   24.9869 H       1  UNL1        0.0616
    179 H          17.4944  -13.7437   23.3814 H       1  UNL1        0.0255
    180 H          17.2527  -13.6106   25.1349 H       1  UNL1        0.0255
    181 H          18.2227  -14.9643   24.4656 H       1  UNL1        0.0255
    182 H          13.4209  -13.1234   23.9058 H       1  UNL1        0.0586
    183 H          13.5007  -14.5444   22.8848 H       1  UNL1        0.0586
    184 H          12.5257  -15.8040   24.8307 H       1  UNL1        0.0616
    185 H          12.6099  -13.3342   26.5469 H       1  UNL1        0.0255
    186 H          11.8015  -14.8568   26.9841 H       1  UNL1        0.0255
    187 H          13.5292  -14.8219   26.6430 H       1  UNL1        0.0255
    188 H           9.2856  -13.6107   25.1069 H       1  UNL1        0.0586
    189 H          10.0748  -12.9488   23.6586 H       1  UNL1        0.0586
    190 H           8.8285  -14.7312   22.1862 H       1  UNL1        0.0616
    191 H           7.5749  -15.7686   24.8064 H       1  UNL1        0.0255
    192 H           7.5243  -16.5675   23.2332 H       1  UNL1        0.0255
    193 H           9.0445  -16.4528   24.1088 H       1  UNL1        0.0255
    194 H           6.7903  -13.7042   20.9120 H       1  UNL1        0.0586
    195 H           5.5917  -14.6417   21.8652 H       1  UNL1        0.0586
    196 H           4.3565  -12.4637   22.6206 H       1  UNL1        0.0616
    197 H           6.8269  -11.1916   21.3101 H       1  UNL1        0.0255
    198 H           5.6477  -10.2683   22.2494 H       1  UNL1        0.0255
    199 H           6.6401  -11.4912   23.0430 H       1  UNL1        0.0255
    200 H           3.3389  -10.4165   19.4094 H       1  UNL1        0.0586
    201 H           3.3415  -12.0467   18.8259 H       1  UNL1        0.0586
    202 H           1.0177  -12.3122   20.1303 H       1  UNL1        0.0616
    203 H           1.3926   -9.3264   20.7721 H       1  UNL1        0.0255
    204 H           0.0702  -10.3261   21.3169 H       1  UNL1        0.0255
    205 H           1.7074  -10.6328   21.9287 H       1  UNL1        0.0255
    206 H          -1.0979   -9.9717   17.7056 H       1  UNL1        0.0586
    207 H           0.3795  -10.0707   16.8225 H       1  UNL1        0.0586
    208 H          -0.4432  -12.5525   16.1495 H       1  UNL1        0.0616
    209 H          -2.9708  -11.7706   17.7311 H       1  UNL1        0.0255
    210 H          -2.6279  -13.3449   17.0489 H       1  UNL1        0.0255
    211 H          -1.6624  -12.7490   18.4141 H       1  UNL1        0.0255
    212 H          -3.4249  -11.6276   13.7681 H       1  UNL1        0.0586
    213 H          -2.8026  -10.0297   13.9827 H       1  UNL1        0.0586
    214 H          -0.8279  -10.7893   12.3057 H       1  UNL1        0.0616
    215 H          -2.5046  -13.3686   12.1102 H       1  UNL1        0.0255
    216 H          -0.9240  -13.1114   11.4009 H       1  UNL1        0.0255
    217 H          -1.0919  -13.2094   13.1656 H       1  UNL1        0.0255
    218 H          -2.9365  -11.0520    8.9610 H       1  UNL1        0.0586
    219 H          -4.0697  -10.2040    9.9431 H       1  UNL1        0.0586
    220 H          -2.7606   -7.9735    9.3195 H       1  UNL1        0.0616
    221 H          -0.7899   -9.7853    7.8209 H       1  UNL1        0.0255
    222 H          -0.5539   -8.1035    8.2584 H       1  UNL1        0.0255
    223 H          -0.5134   -9.3540    9.5226 H       1  UNL1        0.0255
    224 H          -4.9343   -8.4233    6.6118 H       1  UNL1        0.0586
    225 H          -4.2724   -6.9896    7.4402 H       1  UNL1        0.0586
    226 H          -4.0617   -5.8722    5.3550 H       1  UNL1        0.0616
    227 H          -2.8284   -8.1408    3.7659 H       1  UNL1        0.0255
    228 H          -2.5937   -6.4027    3.5702 H       1  UNL1        0.0255
    229 H          -1.8597   -7.2139    4.9487 H       1  UNL1        0.0255
    230 H          -5.4701   -5.6891    2.7180 H       1  UNL1        0.0586
    231 H          -4.2849   -6.9148    2.2700 H       1  UNL1        0.0586
    232 H          -6.3144   -8.6281    2.1020 H       1  UNL1        0.0616
    233 H          -7.9730   -6.0173    1.9904 H       1  UNL1        0.0255
    234 H          -8.5911   -7.6629    2.1803 H       1  UNL1        0.0255
    235 H          -7.6980   -6.9025    3.4852 H       1  UNL1        0.0255
    236 H          -7.8404   -8.3264   -0.6070 H       1  UNL1        0.0586
    237 H          -6.5838   -7.6849   -1.6116 H       1  UNL1        0.0586
    238 H          -5.2927   -9.9451   -0.3690 H       1  UNL1        0.0616
    239 H          -8.1293  -10.6106   -1.2375 H       1  UNL1        0.0255
    240 H          -6.9326  -11.8422   -0.8920 H       1  UNL1        0.0255
    241 H          -7.4222  -10.7276    0.3856 H       1  UNL1        0.0255
    242 H          -5.3349  -12.1096   -2.0502 H       1  UNL1        0.0586
    243 H          -5.8734  -11.6500   -3.6286 H       1  UNL1        0.0586
    244 H          -3.6650  -12.7985   -3.7299 H       1  UNL1        0.0616
    245 H          -3.8936   -9.9838   -4.8373 H       1  UNL1        0.0255
    246 H          -2.8302  -11.1977   -5.5095 H       1  UNL1        0.0255
    247 H          -4.5734  -11.4639   -5.5371 H       1  UNL1        0.0255
    248 H          -1.9183  -12.2651   -1.0311 H       1  UNL1        0.0586
    249 H          -1.7088  -13.4161   -2.3904 H       1  UNL1        0.0586
    250 H           0.4400  -12.5768   -2.9276 H       1  UNL1        0.0616
    251 H          -0.0870   -9.9923   -1.5706 H       1  UNL1        0.0255
    252 H           1.4765  -10.3597   -2.3482 H       1  UNL1        0.0255
    253 H          -0.0273  -10.4067   -3.2741 H       1  UNL1        0.0255
    254 H           2.3300  -12.1359    0.5789 H       1  UNL1        0.0586
    255 H           0.9846  -13.2875    0.8715 H       1  UNL1        0.0586
    256 H           2.5762  -15.2313   -0.0349 H       1  UNL1        0.0616
    257 H           4.7490  -13.0633   -0.1709 H       1  UNL1        0.0255
    258 H           4.8970  -14.6991   -0.7768 H       1  UNL1        0.0255
    259 H           3.7838  -13.5722   -1.5631 H       1  UNL1        0.0255
    260 H           5.2162  -15.5816    2.8631 H       1  UNL1        0.0586
    261 H           4.0992  -14.5123    3.6302 H       1  UNL1        0.0586
    262 H           2.5454  -16.6692    3.9361 H       1  UNL1        0.0616
    263 H           4.9375  -18.1876    2.7218 H       1  UNL1        0.0255
    264 H           3.3581  -18.8504    3.0912 H       1  UNL1        0.0255
    265 H           3.5274  -17.6817    1.7719 H       1  UNL1        0.0255
    266 H           4.6955  -18.6021    6.6016 H       1  UNL1        0.0586
    267 H           5.6142  -17.1481    6.5662 H       1  UNL1        0.0586
    268 H           3.6369  -16.0890    8.0423 H       1  UNL1        0.0616
    269 H           2.5327  -18.9639    7.9683 H       1  UNL1        0.0255
    270 H           1.7275  -17.5693    8.6466 H       1  UNL1        0.0255
    271 H           1.9524  -17.6844    6.8884 H       1  UNL1        0.0255
    272 H           4.3329  -18.0491   11.3738 H       1  UNL1        0.0586
    273 H           5.7584  -18.4633   10.5009 H       1  UNL1        0.0586
    274 H           6.5311  -15.9827   10.9085 H       1  UNL1        0.0616
    275 H           3.9845  -15.7410   12.5969 H       1  UNL1        0.0255
    276 H           5.0945  -14.4496   12.2011 H       1  UNL1        0.0255
    277 H           4.0883  -15.1642   10.9223 H       1  UNL1        0.0255
    278 H           7.1129  -16.4334   14.7743 H       1  UNL1        0.0586
    279 H           6.6497  -18.0523   14.3383 H       1  UNL1        0.0586
    280 H           9.0533  -17.9104   13.0956 H       1  UNL1        0.0616
    281 H           9.4333  -15.3429   14.6915 H       1  UNL1        0.0255
    282 H          10.6859  -16.1834   13.7427 H       1  UNL1        0.0255
    283 H           9.2322  -15.5650   12.9753 H       1  UNL1        0.0255
    284 H          11.0454  -18.3616   16.2915 H       1  UNL1        0.0586
    285 H           9.4419  -18.2801   17.1187 H       1  UNL1        0.0586
    286 H           9.2908  -20.7844   16.8920 H       1  UNL1        0.0616
    287 H          12.1459  -20.8256   15.8110 H       1  UNL1        0.0255
    288 H          11.1385  -22.2397   16.0023 H       1  UNL1        0.0255
    289 H          10.6878  -20.9442   14.8525 H       1  UNL1        0.0255
    290 H          11.7325  -22.6861   18.5942 H       1  UNL1        0.0586
    291 H          12.6341  -21.3520   19.2101 H       1  UNL1        0.0586
    292 H          10.5545  -21.2874   21.2253 H       1  UNL1        0.0616
    293 H          11.3262  -24.1972   20.4972 H       1  UNL1        0.0255
    294 H           9.9948  -23.7288   21.5733 H       1  UNL1        0.0255
    295 H           9.9088  -23.3860   19.8430 H       1  UNL1        0.0255
    296 H          12.5148  -22.7810   23.8821 H       1  UNL1        0.0586
    297 H          13.7896  -21.7914   23.2827 H       1  UNL1        0.0586
    298 H          12.2555  -19.7168   23.7058 H       1  UNL1        0.0616
    299 H          10.9526  -21.6479   25.6773 H       1  UNL1        0.0255
    300 H          10.8163  -19.8912   25.7681 H       1  UNL1        0.0255
    301 H          10.2350  -20.7529   24.3422 H       1  UNL1        0.0255
    302 H          13.0938  -20.2173   27.2665 H       1  UNL1        0.0586
    303 H          14.2178  -21.4555   26.6805 H       1  UNL1        0.0586
    304 H          14.6953  -18.5025   27.3125 H       1  UNL1        0.0616
    305 H          15.6846  -20.8162   28.9582 H       1  UNL1        0.0255
    306 H          16.3517  -19.1853   29.1184 H       1  UNL1        0.0255
    307 H          14.6393  -19.4667   29.3589 H       1  UNL1        0.0255
    308 H          18.1405  -20.0916   26.6410 H       1  UNL1        0.0586
    309 H          17.0828  -20.7132   25.3347 H       1  UNL1        0.0586
    310 H          17.3997  -18.4397   24.1077 H       1  UNL1        0.0616
    311 H          19.4396  -17.9118   26.3655 H       1  UNL1        0.0255
    312 H          19.1273  -16.8176   25.0442 H       1  UNL1        0.0255
    313 H          17.8545  -17.1491   26.2303 H       1  UNL1        0.0255
    314 H          20.8562  -19.2688   22.6495 H       1  UNL1        0.0586
    315 H          20.2220  -20.7679   23.2227 H       1  UNL1        0.0586
    316 H          18.5695  -20.8165   21.3421 H       1  UNL1        0.0616
    317 H          19.7821  -18.1099   20.5082 H       1  UNL1        0.0255
    318 H          18.4937  -18.9401   19.6567 H       1  UNL1        0.0255
    319 H          18.2096  -18.2766   21.2875 H       1  UNL1        0.0255
    320 H          21.1661  -21.6987   18.8082 H       1  UNL1        0.0586
    321 H          19.7427  -22.4059   19.5186 H       1  UNL1        0.0586
    322 H          18.3663  -20.6410   18.1442 H       1  UNL1        0.0616
    323 H          21.0339  -20.1719   16.6921 H       1  UNL1        0.0255
    324 H          19.4993  -19.3695   16.3788 H       1  UNL1        0.0255
    325 H          20.3836  -19.0200   17.8773 H       1  UNL1        0.0255
    326 H          19.1081  -23.4290   15.4865 H       1  UNL1        0.0586
    327 H          19.4243  -23.7871   17.1422 H       1  UNL1        0.0586
    328 H          16.9312  -23.3416   17.6118 H       1  UNL1        0.0616
    329 H          16.6221  -23.2207   14.5564 H       1  UNL1        0.0255
    330 H          15.3603  -23.1351   15.7529 H       1  UNL1        0.0255
    331 H          16.5044  -21.7794   15.6050 H       1  UNL1        0.0255
    332 H          17.4463  -26.9338   16.2502 H       1  UNL1        0.0586
    333 H          18.8076  -25.8863   16.4625 H       1  UNL1        0.0586
    334 H          18.0142  -25.4839   18.8801 H       1  UNL1        0.0616
    335 H          16.0264  -27.7456   18.6000 H       1  UNL1        0.0255
    336 H          16.1462  -26.4895   19.8119 H       1  UNL1        0.0255
    337 H          15.4998  -26.0890   18.2124 H       1  UNL1        0.0255
    338 H          20.1253  -28.6245   18.6028 H       1  UNL1        0.0585
    339 H          19.8630  -27.5942   17.2084 H       1  UNL1        0.0585
    340 H          20.5426  -26.5272   20.0241 H       1  UNL1        0.0613
    341 H          22.8360  -26.0427   18.7546 H       1  UNL1        0.0255
    342 H          22.3185  -27.3186   17.6606 H       1  UNL1        0.0255
    343 H          22.5498  -27.6810   19.3801 H       1  UNL1        0.0255
@<TRIPOS>BOND
     1     1     2    1
     2     2     3    1
     3     3     4    1
     4     3     5    1
     5     5     6    1
     6     6     7    1
     7     7     8    1
     8     7     9    1
     9     9    10    1
    10    10    11    1
    11    11    12    1
    12    11    13    1
    13    13    14    1
    14    14    15    1
    15    15    16    1
    16    15    17    1
    17    17    18    1
    18    18    19    1
    19    19    20    1
    20    19    21    1
    21    21    22    1
    22    22    23    1
    23    23    24    1
    24    23    25    1
    25    25    26    1
    26    26    27    1
    27    27    28    1
    28    27    29    1
    29    29    30    1
    30    30    31    1
    31    31    32    1
    32    31    33    1
    33    33    34    1
    34    34    35    1
    35    35    36    1
    36    35    37    1
    37    37    38    1
    38    38    39    1
    39    39    40    1
    40    39    41    1
    41    41    42    1
    42    42    43    1
    43    43    44    1
    44    43    45    1
    45    45    46    1
    46    46    47    1
    47    47    48    1
    48    47    49    1
    49    49    50    1
    50    50    51    1
    51    51    52    1
    52    51    53    1
    53    53    54    1
    54    54    55    1
    55    55    56    1
    56    55    57    1
    57    57    58    1
    58    58    59    1
    59    59    60    1
    60    59    61    1
    61    61    62    1
    62    62    63    1
    63    63    64    1
    64    63    65    1
    65    65    66    1
    66    66    67    1
    67    67    68    1
    68    67    69    1
    69    69    70    1
    70    70    71    1
    71    71    72    1
    72    71    73    1
    73    73    74    1
    74    74    75    1
    75    75    76    1
    76    75    77    1
    77    77    78    1
    78    78    79    1
    79    79    80    1
    80    79    81    1
    81    81    82    1
    82    82    83    1
    83    83    84    1
    84    83    85    1
    85    85    86    1
    86    86    87    1
    87    87    88    1
    88    87    89    1
    89    89    90    1
    90    90    91    1
    91    91    92    1
    92    91    93    1
    93    93    94    1
    94    94    95    1
    95    95    96    1
    96    95    97    1
    97    97    98    1
    98    98    99    1
    99    99   100    1
   100    99   101    1
   101   101   102    1
   102   102   103    1
   103   103   104    1
   104   103   105    1
   105   105   106    1
   106   106   107    1
   107   107   108    1
   108   107   109    1
   109   109   110    1
   110   110   111    1
   111   111   112    1
   112   111   113    1
   113   113   114    1
   114   114   115    1
   115   115   116    1
   116   115   117    1
   117   117   118    1
   118   118   119    1
   119   119   120    1
   120   119   121    1
   121   121   122    1
   122   122   123    1
   123   123   124    1
   124   123   125    1
   125   125   126    1
   126   126   127    1
   127   127   128    1
   128   127   129    1
   129   129   130    1
   130   130   131    1
   131   131   132    1
   132   131   133    1
   133   133   134    1
   134   134   135    1
   135   135   136    1
   136   135   137    1
   137   137   138    1
   138     1   139    1
   139     2   140    1
   140     2   141    1
   141     3   142    1
   142     4   143    1
   143     4   144    1
   144     4   145    1
   145     6   146    1
   146     6   147    1
   147     7   148    1
   148     8   149    1
   149     8   150    1
   150     8   151    1
   151    10   152    1
   152    10   153    1
   153    11   154    1
   154    12   155    1
   155    12   156    1
   156    12   157    1
   157    14   158    1
   158    14   159    1
   159    15   160    1
   160    16   161    1
   161    16   162    1
   162    16   163    1
   163    18   164    1
   164    18   165    1
   165    19   166    1
   166    20   167    1
   167    20   168    1
   168    20   169    1
   169    22   170    1
   170    22   171    1
   171    23   172    1
   172    24   173    1
   173    24   174    1
   174    24   175    1
   175    26   176    1
   176    26   177    1
   177    27   178    1
   178    28   179    1
   179    28   180    1
   180    28   181    1
   181    30   182    1
   182    30   183    1
   183    31   184    1
   184    32   185    1
   185    32   186    1
   186    32   187    1
   187    34   188    1
   188    34   189    1
   189    35   190    1
   190    36   191    1
   191    36   192    1
   192    36   193    1
   193    38   194    1
   194    38   195    1
   195    39   196    1
   196    40   197    1
   197    40   198    1
   198    40   199    1
   199    42   200    1
   200    42   201    1
   201    43   202    1
   202    44   203    1
   203    44   204    1
   204    44   205    1
   205    46   206    1
   206    46   207    1
   207    47   208    1
   208    48   209    1
   209    48   210    1
   210    48   211    1
   211    50   212    1
   212    50   213    1
   213    51   214    1
   214    52   215    1
   215    52   216    1
   216    52   217    1
   217    54   218    1
   218    54   219    1
   219    55   220    1
   220    56   221    1
   221    56   222    1
   222    56   223    1
   223    58   224    1
   224    58   225    1
   225    59   226    1
   226    60   227    1
   227    60   228    1
   228    60   229    1
   229    62   230    1
   230    62   231    1
   231    63   232    1
   232    64   233    1
   233    64   234    1
   234    64   235    1
   235    66   236    1
   236    66   237    1
   237    67   238    1
   238    68   239    1
   239    68   240    1
   240    68   241    1
   241    70   242    1
   242    70   243    1
   243    71   244    1
   244    72   245    1
   245    72   246    1
   246    72   247    1
   247    74   248    1
   248    74   249    1
   249    75   250    1
   250    76   251    1
   251    76   252    1
   252    76   253    1
   253    78   254    1
   254    78   255    1
   255    79   256    1
   256    80   257    1
   257    80   258    1
   258    80   259    1
   259    82   260    1
   260    82   261    1
   261    83   262    1
   262    84   263    1
   263    84   264    1
   264    84   265    1
   265    86   266    1
   266    86   267    1
   267    87   268    1
   268    88   269    1
   269    88   270    1
   270    88   271    1
   271    90   272    1
   272    90   273    1
   273    91   274    1
   274    92   275    1
   275    92   276    1
   276    92   277    1
   277    94   278    1
   278    94   279    1
   279    95   280    1
   280    96   281    1
   281    96   282    1
   282    96   283    1
   283    98   284    1
   284    98   285    1
   285    99   286    1
   286   100   287    1
   287   100   288    1
   288   100   289    1
   289   102   290    1
   290   102   291    1
   291   103   292    1
   292   104   293    1
   293   104   294    1
   294   104   295    1
   295   106   296    1
   296   106   297    1
   297   107   298    1
   298   108   299    1
   299   108   300    1
   300   108   301    1
   301   110   302    1
   302   110   303    1
   303   111   304    1
   304   112   305    1
   305   112   306    1
   306   112   307    1
   307   114   308    1
   308   114   309    1
   309   115   310    1
   310   116   311    1
   311   116   312    1
   312   116   313    1
   313   118   314    1
   314   118   315    1
   315   119   316    1
   316   120   317    1
   317   120   318    1
   318   120   319    1
   319   122   320    1
   320   122   321    1
   321   123   322    1
   322   124   323    1
   323   124   324    1
   324   124   325    1
   325   126   326    1
   326   126   327    1
   327   127   328    1
   328   128   329    1
   329   128   330    1
   330   128   331    1
   331   130   332    1
   332   130   333    1
   333   131   334    1
   334   132   335    1
   335   132   336    1
   336   132   337    1
   337   134   338    1
   338   134   339    1
   339   135   340    1
   340   136   341    1
   341   136   342    1
   342   136   343    1
