@<TRIPOS>MOLECULE
*****
 20 19 0 0 0
SMALL
GASTEIGER

@<TRIPOS>ATOM
      1 C           1.0833   -1.1167    2.1909 C.3     1  UNL1       -0.0653
      2 C           0.5036    0.0864    1.4615 C.3     1  UNL1       -0.0557
      3 C           0.9231    1.3997    2.1260 C.3     1  UNL1       -0.0510
      4 C           0.4068    2.6546    1.3961 C.3     1  UNL1       -0.0467
      5 C          -1.1199    2.7211    1.3498 C.3     1  UNL1       -0.0627
      6 C           0.9538    3.9121    2.0776 C.3     1  UNL1       -0.0627
      7 H           2.1776   -1.0991    2.1706 H       1  UNL1        0.0230
      8 H           0.7488   -2.0439    1.7155 H       1  UNL1        0.0230
      9 H           0.7580   -1.1349    3.2357 H       1  UNL1        0.0230
     10 H           0.8388    0.0724    0.4180 H       1  UNL1        0.0263
     11 H          -0.5871   -0.0091    1.4571 H       1  UNL1        0.0263
     12 H           0.5735    1.4087    3.1660 H       1  UNL1        0.0268
     13 H           2.0195    1.4394    2.1639 H       1  UNL1        0.0268
     14 H           0.7816    2.6401    0.3644 H       1  UNL1        0.0295
     15 H          -1.5503    2.6731    2.3560 H       1  UNL1        0.0232
     16 H          -1.4539    3.6550    0.8838 H       1  UNL1        0.0232
     17 H          -1.5387    1.9006    0.7597 H       1  UNL1        0.0232
     18 H           2.0491    3.9092    2.0815 H       1  UNL1        0.0232
     19 H           0.6252    4.8146    1.5515 H       1  UNL1        0.0232
     20 H           0.6109    3.9818    3.1154 H       1  UNL1        0.0232
@<TRIPOS>BOND
     1     1     2    1
     2     2     3    1
     3     3     4    1
     4     4     5    1
     5     4     6    1
     6     1     7    1
     7     1     8    1
     8     1     9    1
     9     2    10    1
    10     2    11    1
    11     3    12    1
    12     3    13    1
    13     4    14    1
    14     5    15    1
    15     5    16    1
    16     5    17    1
    17     6    18    1
    18     6    19    1
    19     6    20    1
