@<TRIPOS>MOLECULE
*****
   20    19     1     0     0
SMALL
bcc


@<TRIPOS>ATOM
      1 C            1.0830    -1.1170     2.1910 c3         1 UNL      -0.093100
      2 C1           0.5040     0.0860     1.4620 c3         1 UNL      -0.080400
      3 C2           0.9230     1.4000     2.1260 c3         1 UNL      -0.075400
      4 C3           0.4070     2.6550     1.3960 c3         1 UNL      -0.067700
      5 C4          -1.1200     2.7210     1.3500 c3         1 UNL      -0.089600
      6 C5           0.9540     3.9120     2.0780 c3         1 UNL      -0.089600
      7 H            2.1780    -1.0990     2.1710 hc         1 UNL       0.032033
      8 H1           0.7490    -2.0440     1.7160 hc         1 UNL       0.032033
      9 H2           0.7580    -1.1350     3.2360 hc         1 UNL       0.032033
     10 H3           0.8390     0.0720     0.4180 hc         1 UNL       0.039200
     11 H4          -0.5870    -0.0090     1.4570 hc         1 UNL       0.039200
     12 H5           0.5740     1.4090     3.1660 hc         1 UNL       0.039200
     13 H6           2.0190     1.4390     2.1640 hc         1 UNL       0.039200
     14 H7           0.7820     2.6400     0.3640 hc         1 UNL       0.045700
     15 H8          -1.5500     2.6730     2.3560 hc         1 UNL       0.033200
     16 H9          -1.4540     3.6550     0.8840 hc         1 UNL       0.033200
     17 H10         -1.5390     1.9010     0.7600 hc         1 UNL       0.033200
     18 H11          2.0490     3.9090     2.0820 hc         1 UNL       0.033200
     19 H12          0.6250     4.8150     1.5520 hc         1 UNL       0.033200
     20 H13          0.6110     3.9820     3.1150 hc         1 UNL       0.033200
@<TRIPOS>BOND
     1     1     2 1   
     2     2     3 1   
     3     3     4 1   
     4     4     5 1   
     5     4     6 1   
     6     1     7 1   
     7     1     8 1   
     8     1     9 1   
     9     2    10 1   
    10     2    11 1   
    11     3    12 1   
    12     3    13 1   
    13     4    14 1   
    14     5    15 1   
    15     5    16 1   
    16     5    17 1   
    17     6    18 1   
    18     6    19 1   
    19     6    20 1   
@<TRIPOS>SUBSTRUCTURE
     1 UNL         1 TEMP              0 ****  ****    0 ROOT
