@<TRIPOS>MOLECULE
*****
    6     5     1     0     0
SMALL
bcc


@<TRIPOS>ATOM
      1 C            0.9190    -0.0640    -0.0920 c          1 UNL       0.656900
      2 O            0.3200     0.8610     0.4310 o          1 UNL      -0.610100
      3 N            0.2930    -1.1150    -0.6860 nt         1 UNL      -0.688000
      4 H            2.0180    -0.1360    -0.1330 h5         1 UNL       0.026200
      5 H1           0.7960    -1.8770    -1.1170 hn         1 UNL       0.307500
      6 H2          -0.7180    -1.1250    -0.6920 hn         1 UNL       0.307500
@<TRIPOS>BOND
     1     1     2 2   
     2     1     3 1   
     3     1     4 1   
     4     3     5 1   
     5     3     6 1   
@<TRIPOS>SUBSTRUCTURE
     1 UNL         1 TEMP              0 ****  ****    0 ROOT
