@<TRIPOS>MOLECULE
*****
   13    12     1     0     0
SMALL
bcc


@<TRIPOS>ATOM
      1 O            0.9450    -0.0180     0.0730 oh         1 UNL      -0.603800
      2 C            0.4540    -0.0750    -1.2670 c3         1 UNL       0.096400
      3 C1           0.9540     1.1400    -2.0490 c3         1 UNL       0.105100
      4 O1           2.3850     1.1390    -2.0530 oh         1 UNL      -0.605800
      5 C2           0.4670     1.1200    -3.4880 c3         1 UNL      -0.093100
      6 H            1.8700    -0.3230     0.0330 ho         1 UNL       0.409000
      7 H1           0.8040    -1.0130    -1.7120 h1         1 UNL       0.051200
      8 H2          -0.6390    -0.0910    -1.2280 h1         1 UNL       0.051200
      9 H3           0.6310     2.0660    -1.5590 h1         1 UNL       0.039700
     10 H4           2.6560     1.4510    -1.1710 ho         1 UNL       0.409000
     11 H5          -0.6250     1.1340    -3.5370 hc         1 UNL       0.047033
     12 H6           0.8530     1.9890    -4.0320 hc         1 UNL       0.047033
     13 H7           0.8320     0.2320    -4.0150 hc         1 UNL       0.047033
@<TRIPOS>BOND
     1     1     2 1   
     2     2     3 1   
     3     3     4 1   
     4     3     5 1   
     5     1     6 1   
     6     2     7 1   
     7     2     8 1   
     8     3     9 1   
     9     4    10 1   
    10     5    11 1   
    11     5    12 1   
    12     5    13 1   
@<TRIPOS>SUBSTRUCTURE
     1 UNL         1 TEMP              0 ****  ****    0 ROOT
