@<TRIPOS>MOLECULE
*****
 13 12 0 0 0
SMALL
GASTEIGER

@<TRIPOS>ATOM
      1 O           0.9450   -0.0184    0.0726 O.3     1  UNL1       -0.3925
      2 C           0.4540   -0.0752   -1.2669 C.3     1  UNL1        0.0699
      3 C           0.9544    1.1399   -2.0489 C.3     1  UNL1        0.0754
      4 O           2.3850    1.1392   -2.0530 O.3     1  UNL1       -0.3898
      5 C           0.4674    1.1201   -3.4876 C.3     1  UNL1       -0.0368
      6 H           1.8696   -0.3226    0.0326 H       1  UNL1        0.2095
      7 H           0.8042   -1.0128   -1.7119 H       1  UNL1        0.0583
      8 H          -0.6391   -0.0914   -1.2285 H       1  UNL1        0.0583
      9 H           0.6307    2.0656   -1.5590 H       1  UNL1        0.0613
     10 H           2.6558    1.4510   -1.1706 H       1  UNL1        0.2099
     11 H          -0.6255    1.1344   -3.5372 H       1  UNL1        0.0255
     12 H           0.8529    1.9887   -4.0322 H       1  UNL1        0.0255
     13 H           0.8324    0.2316   -4.0146 H       1  UNL1        0.0255
@<TRIPOS>BOND
     1     1     2    1
     2     2     3    1
     3     3     4    1
     4     3     5    1
     5     1     6    1
     6     2     7    1
     7     2     8    1
     8     3     9    1
     9     4    10    1
    10     5    11    1
    11     5    12    1
    12     5    13    1
