@<TRIPOS>MOLECULE
*****
   11    10     1     0     0
SMALL
bcc


@<TRIPOS>ATOM
      1 CA           0.9830    -0.0750     0.0700 c3         1 GLY       0.114800
      2 C            0.5100     1.0430     1.0050 c3         1 GLY       0.080400
      3 O            1.0150     2.3040     0.5670 oh         1 GLY      -0.600800
      4 N            0.5570     0.1630    -1.3120 n8         1 GLY      -0.897800
      5 HA1          0.6020    -1.0430     0.4110 h1         1 GLY       0.054700
      6 HA2          2.0770    -0.1210     0.0780 h1         1 GLY       0.054700
      7 H1          -0.5820     1.1030     1.0210 h1         1 GLY       0.048200
      8 H2           0.8600     0.8660     2.0270 h1         1 GLY       0.048200
      9 H            1.9860     2.2370     0.5560 ho         1 GLY       0.399000
     10 H3          -0.4620     0.1430    -1.3520 hn         1 GLY       0.349300
     11 H4           0.7940     1.1310    -1.5460 hn         1 GLY       0.349300
@<TRIPOS>BOND
     1     1     2 1   
     2     2     3 1   
     3     1     4 1   
     4     1     5 1   
     5     1     6 1   
     6     2     7 1   
     7     2     8 1   
     8     3     9 1   
     9     4    10 1   
    10     4    11 1   
@<TRIPOS>SUBSTRUCTURE
     1 GLY         1 TEMP              0 ****  ****    0 ROOT
