@<TRIPOS>MOLECULE
*****
 11 10 0 0 0
SMALL
GASTEIGER

@<TRIPOS>ATOM
      1 CA          0.9834   -0.0754    0.0699 C.3     1  GLY1        0.0164
      2 C           0.5105    1.0431    1.0052 C.3     1  GLY1        0.0565
      3 O           1.0150    2.3039    0.5668 O.3     1  GLY1       -0.3938
      4 N           0.5575    0.1625   -1.3123 N.3     1  GLY1       -0.3279
      5 HA1         0.6019   -1.0429    0.4115 H       1  GLY1        0.0444
      6 HA2         2.0771   -0.1208    0.0784 H       1  GLY1        0.0444
      7 H1         -0.5824    1.1033    1.0213 H       1  GLY1        0.0570
      8 H2          0.8598    0.8656    2.0272 H       1  GLY1        0.0570
      9 H           1.9856    2.2372    0.5558 H       1  GLY1        0.2095
     10 H1         -0.4621    0.1426   -1.3520 H       1  GLY1        0.1183
     11 H2          0.7940    1.1312   -1.5463 H       1  GLY1        0.1183
@<TRIPOS>BOND
     1     1     2    1
     2     2     3    1
     3     1     4    1
     4     1     5    1
     5     1     6    1
     6     2     7    1
     7     2     8    1
     8     3     9    1
     9     4    10    1
    10     4    11    1
