@<TRIPOS>MOLECULE
*****
   12    11     1     0     0
SMALL
bcc


@<TRIPOS>ATOM
      1 O           -0.8680    -0.9890    -0.6420 oh         1 UNL      -0.598800
      2 C            0.5530    -1.0240    -0.6630 c3         1 UNL       0.126400
      3 C1           1.0540    -0.8960    -2.0940 c3         1 UNL      -0.120400
      4 C2           2.5700    -0.9220    -2.1640 c3         1 UNL      -0.091100
      5 H           -1.1410    -0.1100    -0.9560 ho         1 UNL       0.396000
      6 H1           0.9300    -0.2130    -0.0320 h1         1 UNL       0.044200
      7 H2           0.8720    -1.9750    -0.2240 h1         1 UNL       0.044200
      8 H3           0.6380    -1.7080    -2.7010 hc         1 UNL       0.046200
      9 H4           0.6770     0.0340    -2.5370 hc         1 UNL       0.046200
     10 H5           2.9670    -1.8450    -1.7300 hc         1 UNL       0.036033
     11 H6           2.9030    -0.8660    -3.2060 hc         1 UNL       0.036033
     12 H7           3.0010    -0.0740    -1.6230 hc         1 UNL       0.036033
@<TRIPOS>BOND
     1     1     2 1   
     2     2     3 1   
     3     3     4 1   
     4     1     5 1   
     5     2     6 1   
     6     2     7 1   
     7     3     8 1   
     8     3     9 1   
     9     4    10 1   
    10     4    11 1   
    11     4    12 1   
@<TRIPOS>SUBSTRUCTURE
     1 UNL         1 TEMP              0 ****  ****    0 ROOT
