@<TRIPOS>MOLECULE
*****
 12 11 0 0 0
SMALL
GASTEIGER

@<TRIPOS>ATOM
      1 O          -0.8682   -0.9894   -0.6422 O.3     1  UNL1       -0.3950
      2 C           0.5531   -1.0244   -0.6627 C.3     1  UNL1        0.0440
      3 C           1.0540   -0.8960   -2.0944 C.3     1  UNL1       -0.0326
      4 C           2.5696   -0.9218   -2.1636 C.3     1  UNL1       -0.0632
      5 H          -1.1415   -0.1099   -0.9555 H       1  UNL1        0.2094
      6 H           0.9297   -0.2129   -0.0320 H       1  UNL1        0.0557
      7 H           0.8720   -1.9752   -0.2240 H       1  UNL1        0.0557
      8 H           0.6381   -1.7081   -2.7011 H       1  UNL1        0.0285
      9 H           0.6766    0.0336   -2.5369 H       1  UNL1        0.0285
     10 H           2.9675   -1.8446   -1.7302 H       1  UNL1        0.0230
     11 H           2.9031   -0.8660   -3.2056 H       1  UNL1        0.0230
     12 H           3.0007   -0.0742   -1.6229 H       1  UNL1        0.0230
@<TRIPOS>BOND
     1     1     2    1
     2     2     3    1
     3     3     4    1
     4     1     5    1
     5     2     6    1
     6     2     7    1
     7     3     8    1
     8     3     9    1
     9     4    10    1
    10     4    11    1
    11     4    12    1
