@<TRIPOS>MOLECULE
*****
 9 8 0 0 0
SMALL
GASTEIGER

@<TRIPOS>ATOM
      1 C           0.9445    0.0475   -0.0646 C.3     1  UNL1       -0.0418
      2 C           0.4488    1.2636    0.6898 C.3     1  UNL1        0.0414
      3 O           0.9207    2.4480    0.0645 O.3     1  UNL1       -0.3953
      4 H           0.6014    0.0731   -1.1040 H       1  UNL1        0.0252
      5 H           0.5866   -0.8740    0.4031 H       1  UNL1        0.0252
      6 H           2.0391    0.0274   -0.0910 H       1  UNL1        0.0252
      7 H          -0.6447    1.2920    0.6938 H       1  UNL1        0.0554
      8 H           0.7976    1.2511    1.7269 H       1  UNL1        0.0554
      9 H           1.8928    2.4165    0.0724 H       1  UNL1        0.2094
@<TRIPOS>BOND
     1     1     2    1
     2     2     3    1
     3     1     4    1
     4     1     5    1
     5     1     6    1
     6     2     7    1
     7     2     8    1
     8     3     9    1
