@<TRIPOS>MOLECULE
*****
 12 11 0 0 0
SMALL
GASTEIGER

@<TRIPOS>ATOM
      1 O           0.9396    0.0165   -0.0614 O.3     1  UNL1       -0.3923
      2 C           0.4726   -0.5346    1.1656 C.3     1  UNL1        0.0496
      3 C           0.9598   -1.9699    1.2893 C.3     1  UNL1       -0.0392
      4 C           0.9598    0.3269    2.3205 C.3     1  UNL1       -0.0392
      5 H           1.9125    0.0081   -0.0427 H       1  UNL1        0.2098
      6 H          -0.6221   -0.5208    1.1353 H       1  UNL1        0.0588
      7 H           2.0545   -2.0164    1.2769 H       1  UNL1        0.0254
      8 H           0.6004   -2.4327    2.2133 H       1  UNL1        0.0254
      9 H           0.6101   -2.5664    0.4399 H       1  UNL1        0.0254
     10 H           0.6101    1.3581    2.2020 H       1  UNL1        0.0254
     11 H           0.6005   -0.0561    3.2803 H       1  UNL1        0.0254
     12 H           2.0545    0.3671    2.3471 H       1  UNL1        0.0254
@<TRIPOS>BOND
     1     1     2    1
     2     2     3    1
     3     2     4    1
     4     1     5    1
     5     2     6    1
     6     3     7    1
     7     3     8    1
     8     3     9    1
     9     4    10    1
    10     4    11    1
    11     4    12    1
